<?xml version="1.0" encoding="UTF-8"?>

<!-- generated on 2023-10-20 13:38:56.043910 by OsmWebWizard.py v1_18_0+0000-03ecfdea036
<configuration>
    <net-file value="C:\Users\NAGATEJA\Sumo\2023-10-20-13-38-47\osm.net.xml.gz"/>
    <output-trip-file value="C:\Users\NAGATEJA\Sumo\2023-10-20-13-38-47\osm.bus.trips.xml"/>
    <route-file value="C:\Users\NAGATEJA\Sumo\2023-10-20-13-38-47\osm.bus.rou.xml"/>
    <prefix value="bus"/>
    <trip-attributes value="departLane=&quot;best&quot;"/>
    <fringe-start-attributes value="departSpeed=&quot;max&quot;"/>
    <vehicle-class value="bus"/>
    <fringe-factor value="5"/>
    <vclass value="bus"/>
    <via-edge-types value="highway.motorway,highway.motorway_link,highway.trunk_link,highway.primary_link,highway.secondary_link,highway.tertiary_link"/>
    <min-distance value="600.0"/>
    <min-distance.fringe value="10.0"/>
    <remove-loops value="True"/>
    <validate value="True"/>
    <insertion-density value="4.0"/>
</configuration>
-->

<!-- generated on 2023-10-20 13:38:55 by Eclipse SUMO duarouter Version 1.18.0
<configuration xmlns:xsi="http://www.w3.org/2001/XMLSchema-instance" xsi:noNamespaceSchemaLocation="http://sumo.dlr.de/xsd/duarouterConfiguration.xsd">

    <input>
        <net-file value="C:\Users\NAGATEJA\Sumo\2023-10-20-13-38-47\osm.net.xml.gz"/>
        <route-files value="C:\Users\NAGATEJA\Sumo\2023-10-20-13-38-47\osm.bus.trips.xml"/>
    </input>

    <output>
        <output-file value="C:\Users\NAGATEJA\Sumo\2023-10-20-13-38-47\osm.bus.trips.xml.tmp"/>
        <alternatives-output value="NUL"/>
        <write-trips value="true"/>
    </output>

    <processing>
        <remove-loops value="true"/>
    </processing>

    <time>
        <begin value="0.0"/>
        <end value="3600.0"/>
    </time>

    <report>
        <no-warnings value="true"/>
        <ignore-errors value="true"/>
        <no-step-log value="true"/>
    </report>

</configuration>
-->

<routes xmlns:xsi="http://www.w3.org/2001/XMLSchema-instance" xsi:noNamespaceSchemaLocation="http://sumo.dlr.de/xsd/routes_file.xsd">
    <vType id="bus_bus" vClass="bus"/>
    <trip id="bus0" type="bus_bus" depart="0.00" departLane="best" from="36882311#1" to="-23515739#0"/>
    <trip id="bus1" type="bus_bus" depart="17.05" departLane="best" departSpeed="max" from="1148406432#0" to="1136611795"/>
    <trip id="bus2" type="bus_bus" depart="34.10" departLane="best" from="38542543" to="369295564#1"/>
    <trip id="bus3" type="bus_bus" depart="51.15" departLane="best" from="-548524980#1" to="-991536561"/>
    <trip id="bus4" type="bus_bus" depart="68.20" departLane="best" departSpeed="max" from="154340361#0" to="-250717629"/>
    <trip id="bus5" type="bus_bus" depart="85.25" departLane="best" departSpeed="max" from="111867003" to="363452629#0"/>
    <trip id="bus6" type="bus_bus" depart="102.30" departLane="best" from="36884561#0" to="363477541#1"/>
    <trip id="bus7" type="bus_bus" depart="119.36" departLane="best" departSpeed="max" from="111867003" to="36882310#0"/>
    <trip id="bus8" type="bus_bus" depart="136.41" departLane="best" from="503401204" to="112657837#1"/>
    <trip id="bus9" type="bus_bus" depart="153.46" departLane="best" from="503401204" to="38542534"/>
    <trip id="bus10" type="bus_bus" depart="170.51" departLane="best" from="1205171800" to="1106310175"/>
    <trip id="bus12" type="bus_bus" depart="204.61" departLane="best" from="503401204" to="36882310#2-AddedOnRampEdge"/>
    <trip id="bus13" type="bus_bus" depart="221.66" departLane="best" from="338941361#0" to="988901292"/>
    <trip id="bus14" type="bus_bus" depart="238.71" departLane="best" departSpeed="max" from="150785560" to="363477541#1"/>
    <trip id="bus15" type="bus_bus" depart="255.76" departLane="best" departSpeed="max" from="503401205" to="36882311#0-AddedOnRampEdge"/>
    <trip id="bus16" type="bus_bus" depart="272.81" departLane="best" from="508197005" to="36851759"/>
    <trip id="bus17" type="bus_bus" depart="289.86" departLane="best" departSpeed="max" from="38540557#0" to="-38542534"/>
    <trip id="bus19" type="bus_bus" depart="323.96" departLane="best" from="1047141876#1" to="1148155464"/>
    <trip id="bus20" type="bus_bus" depart="341.01" departLane="best" from="107215083" to="1182221970"/>
    <trip id="bus21" type="bus_bus" depart="358.07" departLane="best" from="36882311#0-AddedOnRampEdge" to="160558221#1"/>
    <trip id="bus22" type="bus_bus" depart="375.12" departLane="best" from="1148155464-AddedOnRampEdge" to="764332430"/>
    <trip id="bus23" type="bus_bus" depart="392.17" departLane="best" from="1047141876#2" to="36882310#2-AddedOnRampEdge"/>
    <trip id="bus24" type="bus_bus" depart="409.22" departLane="best" from="991536561" to="36884561#0"/>
    <trip id="bus25" type="bus_bus" depart="426.27" departLane="best" from="358318632" to="369295564#1"/>
    <trip id="bus27" type="bus_bus" depart="460.37" departLane="best" departSpeed="max" from="111867003" to="-250717629"/>
    <trip id="bus28" type="bus_bus" depart="477.42" departLane="best" departSpeed="max" from="111867003" to="764332431"/>
    <trip id="bus29" type="bus_bus" depart="494.47" departLane="best" from="52063523#0" to="150785556#0-AddedOffRampEdge"/>
    <trip id="bus30" type="bus_bus" depart="511.52" departLane="best" from="553253481-AddedOffRampEdge" to="362206700#0"/>
    <trip id="bus31" type="bus_bus" depart="528.57" departLane="best" from="358318632-AddedOffRampEdge" to="1148408386"/>
    <trip id="bus32" type="bus_bus" depart="545.62" departLane="best" from="150894905" to="1136611795"/>
    <trip id="bus33" type="bus_bus" depart="562.67" departLane="best" from="991536562#0" to="363452629#0"/>
    <trip id="bus34" type="bus_bus" depart="579.72" departLane="best" departSpeed="max" from="107215088" to="36882311#1"/>
    <trip id="bus35" type="bus_bus" depart="596.78" departLane="best" from="399001082" to="338941361#0"/>
    <trip id="bus36" type="bus_bus" depart="613.83" departLane="best" from="-988901293#0" to="208686728"/>
    <trip id="bus37" type="bus_bus" depart="630.88" departLane="best" from="991536562#0" to="363477540"/>
    <trip id="bus38" type="bus_bus" depart="647.93" departLane="best" from="93688006" to="638928391"/>
    <trip id="bus39" type="bus_bus" depart="664.98" departLane="best" from="1136611795" to="38684971#1-AddedOffRampEdge"/>
    <trip id="bus40" type="bus_bus" depart="682.03" departLane="best" departSpeed="max" from="36913434" to="363477541#1"/>
    <trip id="bus41" type="bus_bus" depart="699.08" departLane="best" from="1148155464-AddedOnRampEdge" to="36884561#0"/>
    <trip id="bus42" type="bus_bus" depart="716.13" departLane="best" departSpeed="max" from="107215088" to="763048421#0"/>
    <trip id="bus43" type="bus_bus" depart="733.18" departLane="best" departSpeed="max" from="23076927" to="764332432#1"/>
    <trip id="bus44" type="bus_bus" depart="750.23" departLane="best" from="23515739#0" to="1109911788"/>
    <trip id="bus45" type="bus_bus" depart="767.28" departLane="best" from="553253481-AddedOffRampEdge" to="638928391"/>
    <trip id="bus46" type="bus_bus" depart="784.33" departLane="best" departSpeed="max" from="1148406432#0" to="36884561#0"/>
    <trip id="bus47" type="bus_bus" depart="801.38" departLane="best" from="36882310#0" to="1106310175"/>
    <trip id="bus48" type="bus_bus" depart="818.44" departLane="best" departSpeed="max" from="391160974" to="363477541#1"/>
    <trip id="bus49" type="bus_bus" depart="835.49" departLane="best" departSpeed="max" from="391160974" to="363477541#1"/>
    <trip id="bus50" type="bus_bus" depart="852.54" departLane="best" from="-112657837#0" to="150894905"/>
    <trip id="bus51" type="bus_bus" depart="869.59" departLane="best" from="1182221971" to="338941361#3"/>
    <trip id="bus52" type="bus_bus" depart="886.64" departLane="best" from="52063523#0" to="553253480"/>
    <trip id="bus53" type="bus_bus" depart="903.69" departLane="best" from="52063523#0" to="764332431"/>
    <trip id="bus54" type="bus_bus" depart="920.74" departLane="best" from="1047141876#2" to="363449251"/>
    <trip id="bus56" type="bus_bus" depart="954.84" departLane="best" from="23076955" to="363477541#1"/>
    <trip id="bus57" type="bus_bus" depart="971.89" departLane="best" from="1148155464-AddedOnRampEdge" to="638928391"/>
    <trip id="bus58" type="bus_bus" depart="988.94" departLane="best" departSpeed="max" from="154340361#0" to="112657837#1"/>
    <trip id="bus59" type="bus_bus" depart="1005.99" departLane="best" from="338941361#1" to="36882310#2-AddedOnRampEdge"/>
    <trip id="bus60" type="bus_bus" depart="1023.04" departLane="best" departSpeed="max" from="1110178941" to="150785556#0"/>
    <trip id="bus61" type="bus_bus" depart="1040.09" departLane="best" from="991536562#0" to="36907507#0"/>
    <trip id="bus62" type="bus_bus" depart="1057.15" departLane="best" from="160558221#0" to="363452629#0"/>
    <trip id="bus63" type="bus_bus" depart="1074.20" departLane="best" departSpeed="max" from="107215088" to="1148155463"/>
    <trip id="bus64" type="bus_bus" depart="1091.25" departLane="best" departSpeed="max" from="111867003" to="1136611795"/>
    <trip id="bus66" type="bus_bus" depart="1125.35" departLane="best" departSpeed="max" from="111867003" to="730432812"/>
    <trip id="bus67" type="bus_bus" depart="1142.40" departLane="best" from="508197005" to="988901293#0"/>
    <trip id="bus68" type="bus_bus" depart="1159.45" departLane="best" from="-112657837#0" to="36907507#0"/>
    <trip id="bus69" type="bus_bus" depart="1176.50" departLane="best" departSpeed="max" from="111867003" to="1091198030"/>
    <trip id="bus70" type="bus_bus" depart="1193.55" departLane="best" from="763048421#0" to="36851759"/>
    <trip id="bus71" type="bus_bus" depart="1210.60" departLane="best" departSpeed="max" from="23076927" to="508197005"/>
    <trip id="bus72" type="bus_bus" depart="1227.65" departLane="best" from="503401204" to="362206700#2"/>
    <trip id="bus73" type="bus_bus" depart="1244.70" departLane="best" from="1064628344" to="338941361#3"/>
    <trip id="bus74" type="bus_bus" depart="1261.75" departLane="best" departSpeed="max" from="154340361#0" to="362206700#2"/>
    <trip id="bus75" type="bus_bus" depart="1278.80" departLane="best" from="38542534" to="36907507#0"/>
    <trip id="bus77" type="bus_bus" depart="1312.91" departLane="best" from="508197005" to="1148406432#1"/>
    <trip id="bus78" type="bus_bus" depart="1329.96" departLane="best" departSpeed="max" from="1110178941" to="358318632-AddedOffRampEdge"/>
    <trip id="bus79" type="bus_bus" depart="1347.01" departLane="best" departSpeed="max" from="154340361#0" to="1182221970"/>
    <trip id="bus80" type="bus_bus" depart="1364.06" departLane="best" from="208686728" to="638928391"/>
    <trip id="bus81" type="bus_bus" depart="1381.11" departLane="best" from="208686728" to="553253481"/>
    <trip id="bus82" type="bus_bus" depart="1398.16" departLane="best" from="93688006" to="338941361#3"/>
    <trip id="bus83" type="bus_bus" depart="1415.21" departLane="best" from="234946738#0-AddedOnRampEdge" to="112657837#1"/>
    <trip id="bus84" type="bus_bus" depart="1432.26" departLane="best" from="152051153" to="548524980#1"/>
    <trip id="bus85" type="bus_bus" depart="1449.31" departLane="best" departSpeed="max" from="150785560" to="988901293#1"/>
    <trip id="bus86" type="bus_bus" depart="1466.36" departLane="best" departSpeed="max" from="23076927" to="338941361#0"/>
    <trip id="bus87" type="bus_bus" depart="1483.41" departLane="best" from="764332432#0" to="991536562#0"/>
    <trip id="bus88" type="bus_bus" depart="1500.46" departLane="best" from="1109911787" to="1205171802#0"/>
    <trip id="bus89" type="bus_bus" depart="1517.52" departLane="best" from="93688006" to="36851759"/>
    <trip id="bus90" type="bus_bus" depart="1534.57" departLane="best" from="763048421#0" to="403473952#1"/>
    <trip id="bus91" type="bus_bus" depart="1551.62" departLane="best" from="-763048420" to="36851759"/>
    <trip id="bus93" type="bus_bus" depart="1585.72" departLane="best" from="1109911787" to="764332432#2"/>
    <trip id="bus94" type="bus_bus" depart="1602.77" departLane="best" from="1047141876#1" to="1109946344"/>
    <trip id="bus95" type="bus_bus" depart="1619.82" departLane="best" from="363477538" to="36907507#0"/>
    <trip id="bus97" type="bus_bus" depart="1653.92" departLane="best" from="-548524980#1" to="553253480"/>
    <trip id="bus98" type="bus_bus" depart="1670.97" departLane="best" from="363449251" to="36882311#0-AddedOnRampEdge"/>
    <trip id="bus99" type="bus_bus" depart="1688.02" departLane="best" departSpeed="max" from="154340361#0" to="36851759"/>
    <trip id="bus100" type="bus_bus" depart="1705.07" departLane="best" departSpeed="max" from="251495490" to="763048421#1"/>
    <trip id="bus101" type="bus_bus" depart="1722.12" departLane="best" departSpeed="max" from="1110178941" to="38684971#1"/>
    <trip id="bus102" type="bus_bus" depart="1739.17" departLane="best" from="-112657837#0" to="234946738#0-AddedOnRampEdge"/>
    <trip id="bus103" type="bus_bus" depart="1756.23" departLane="best" from="1148718165" to="403473952#1"/>
    <trip id="bus104" type="bus_bus" depart="1773.28" departLane="best" from="-988901293#1" to="359476587"/>
    <trip id="bus105" type="bus_bus" depart="1790.33" departLane="best" from="-988901293#1" to="112657837#1"/>
    <trip id="bus106" type="bus_bus" depart="1807.38" departLane="best" from="1148155464-AddedOnRampEdge" to="763048421#1"/>
    <trip id="bus107" type="bus_bus" depart="1824.43" departLane="best" from="52063523#1" to="638928391"/>
    <trip id="bus108" type="bus_bus" depart="1841.48" departLane="best" departSpeed="max" from="150785560" to="1106310175"/>
    <trip id="bus109" type="bus_bus" depart="1858.53" departLane="best" departSpeed="max" from="503401205" to="38542543"/>
    <trip id="bus110" type="bus_bus" depart="1875.58" departLane="best" from="36882310#1" to="988901293#1"/>
    <trip id="bus112" type="bus_bus" depart="1909.68" departLane="best" departSpeed="max" from="503401205" to="1205171802#0"/>
    <trip id="bus113" type="bus_bus" depart="1926.73" departLane="best" departSpeed="max" from="36913434" to="764332430"/>
    <trip id="bus114" type="bus_bus" depart="1943.78" departLane="best" departSpeed="max" from="107215088" to="363477541#1"/>
    <trip id="bus116" type="bus_bus" depart="1977.88" departLane="best" from="36882311#0-AddedOnRampEdge" to="1148408386"/>
    <trip id="bus117" type="bus_bus" depart="1994.94" departLane="best" from="234946738#0-AddedOnRampEdge" to="730432812"/>
    <trip id="bus119" type="bus_bus" depart="2029.04" departLane="best" departSpeed="max" from="154340361#0" to="1182221970"/>
    <trip id="bus120" type="bus_bus" depart="2046.09" departLane="best" from="-112657837#0" to="508197004"/>
    <trip id="bus121" type="bus_bus" depart="2063.14" departLane="best" from="36882311#1" to="1148408386"/>
    <trip id="bus122" type="bus_bus" depart="2080.19" departLane="best" from="38684971#0" to="363477541#1"/>
    <trip id="bus123" type="bus_bus" depart="2097.24" departLane="best" departSpeed="max" from="154340361#0" to="112657837#1"/>
    <trip id="bus124" type="bus_bus" depart="2114.29" departLane="best" from="991536561" to="730432812"/>
    <trip id="bus125" type="bus_bus" depart="2131.34" departLane="best" from="1148155466" to="363477541#1"/>
    <trip id="bus126" type="bus_bus" depart="2148.39" departLane="best" departSpeed="max" from="503401205" to="36851759"/>
    <trip id="bus127" type="bus_bus" depart="2165.44" departLane="best" from="1148406432#1-AddedOffRampEdge" to="730432812"/>
    <trip id="bus128" type="bus_bus" depart="2182.49" departLane="best" from="399001083" to="638928391"/>
    <trip id="bus129" type="bus_bus" depart="2199.54" departLane="best" from="553253466" to="-112657837#0"/>
    <trip id="bus130" type="bus_bus" depart="2216.60" departLane="best" from="1136611795" to="1054230460"/>
    <trip id="bus131" type="bus_bus" depart="2233.65" departLane="best" from="399001079" to="730432812"/>
    <trip id="bus132" type="bus_bus" depart="2250.70" departLane="best" departSpeed="max" from="154340361#0" to="36882311#0-AddedOnRampEdge"/>
    <trip id="bus133" type="bus_bus" depart="2267.75" departLane="best" from="1109911787" to="763048421#1"/>
    <trip id="bus134" type="bus_bus" depart="2284.80" departLane="best" from="52032471" to="988901292"/>
    <trip id="bus135" type="bus_bus" depart="2301.85" departLane="best" departSpeed="max" from="503401205" to="638928391"/>
    <trip id="bus136" type="bus_bus" depart="2318.90" departLane="best" from="23515739#0" to="399001082"/>
    <trip id="bus138" type="bus_bus" depart="2353.00" departLane="best" from="399001081" to="1064628344"/>
    <trip id="bus139" type="bus_bus" depart="2370.05" departLane="best" from="52032727" to="638928391"/>
    <trip id="bus140" type="bus_bus" depart="2387.10" departLane="best" departSpeed="max" from="111867003" to="-52245576#0"/>
    <trip id="bus141" type="bus_bus" depart="2404.15" departLane="best" departSpeed="max" from="23076927" to="1205171802#1"/>
    <trip id="bus142" type="bus_bus" depart="2421.20" departLane="best" from="23515739#0" to="1109946345"/>
    <trip id="bus143" type="bus_bus" depart="2438.25" departLane="best" from="1064628344" to="638928391"/>
    <trip id="bus144" type="bus_bus" depart="2455.31" departLane="best" from="764332432#2" to="1182221970"/>
    <trip id="bus145" type="bus_bus" depart="2472.36" departLane="best" from="36882311#1" to="234946738#0-AddedOnRampEdge"/>
    <trip id="bus146" type="bus_bus" depart="2489.41" departLane="best" from="988901293#0" to="363477541#1"/>
    <trip id="bus147" type="bus_bus" depart="2506.46" departLane="best" from="763048421#1" to="107215083"/>
    <trip id="bus148" type="bus_bus" depart="2523.51" departLane="best" from="93688006" to="1109911788"/>
    <trip id="bus150" type="bus_bus" depart="2557.61" departLane="best" departSpeed="max" from="107215088" to="763048421#0"/>
    <trip id="bus151" type="bus_bus" depart="2574.66" departLane="best" from="38542534" to="150785556#0-AddedOffRampEdge"/>
    <trip id="bus152" type="bus_bus" depart="2591.71" departLane="best" from="36882310#0" to="363452629#0"/>
    <trip id="bus154" type="bus_bus" depart="2625.81" departLane="best" from="-112657837#0" to="763048421#0"/>
    <trip id="bus155" type="bus_bus" depart="2642.86" departLane="best" from="338941361#1" to="38684971#1-AddedOffRampEdge"/>
    <trip id="bus156" type="bus_bus" depart="2659.91" departLane="best" from="150785556#1" to="988901292"/>
    <trip id="bus157" type="bus_bus" depart="2676.96" departLane="best" departSpeed="max" from="36913434" to="152051153"/>
    <trip id="bus158" type="bus_bus" depart="2694.02" departLane="best" departSpeed="max" from="38540557#0" to="1205171802#1"/>
    <trip id="bus159" type="bus_bus" depart="2711.07" departLane="best" from="1148406432#1-AddedOffRampEdge" to="234946738#2"/>
    <trip id="bus160" type="bus_bus" depart="2728.12" departLane="best" from="152051153" to="1205171802#0"/>
    <trip id="bus161" type="bus_bus" depart="2745.17" departLane="best" departSpeed="max" from="107215088" to="338941361#0"/>
    <trip id="bus162" type="bus_bus" depart="2762.22" departLane="best" from="763048421#1" to="369295564#1"/>
    <trip id="bus163" type="bus_bus" depart="2779.27" departLane="best" from="1148406432#1" to="363477541#1"/>
    <trip id="bus164" type="bus_bus" depart="2796.32" departLane="best" from="-112657837#0" to="-1182221971"/>
    <trip id="bus165" type="bus_bus" depart="2813.37" departLane="best" departSpeed="max" from="154340361#0" to="36851759"/>
    <trip id="bus167" type="bus_bus" depart="2847.47" departLane="best" from="208686728" to="112657837#1"/>
    <trip id="bus168" type="bus_bus" depart="2864.52" departLane="best" departSpeed="max" from="23076927" to="730432812"/>
    <trip id="bus169" type="bus_bus" depart="2881.57" departLane="best" from="1047141876#2" to="363452629#0"/>
    <trip id="bus170" type="bus_bus" depart="2898.62" departLane="best" from="36882311#0-AddedOnRampEdge" to="152051153"/>
    <trip id="bus171" type="bus_bus" depart="2915.68" departLane="best" departSpeed="max" from="503401205" to="403473952#1"/>
    <trip id="bus172" type="bus_bus" depart="2932.73" departLane="best" departSpeed="max" from="36913434" to="1148155463"/>
    <trip id="bus173" type="bus_bus" depart="2949.78" departLane="best" departSpeed="max" from="1110178941" to="-23515739#0"/>
    <trip id="bus174" type="bus_bus" depart="2966.83" departLane="best" from="-112657837#1" to="362206700#0"/>
    <trip id="bus175" type="bus_bus" depart="2983.88" departLane="best" from="508197004" to="988901293#0"/>
    <trip id="bus176" type="bus_bus" depart="3000.93" departLane="best" departSpeed="max" from="154340361#0" to="36882313"/>
    <trip id="bus177" type="bus_bus" depart="3017.98" departLane="best" departSpeed="max" from="1110178941" to="38542534"/>
    <trip id="bus178" type="bus_bus" depart="3035.03" departLane="best" from="234946738#1" to="553253480"/>
    <trip id="bus180" type="bus_bus" depart="3069.13" departLane="best" from="38684971#1-AddedOffRampEdge" to="506310567"/>
    <trip id="bus181" type="bus_bus" depart="3086.18" departLane="best" departSpeed="max" from="107215088" to="338941361#1"/>
    <trip id="bus182" type="bus_bus" depart="3103.23" departLane="best" from="1109946346" to="764332432#1"/>
    <trip id="bus183" type="bus_bus" depart="3120.28" departLane="best" departSpeed="max" from="251495490" to="-52245576#0"/>
    <trip id="bus186" type="bus_bus" depart="3171.44" departLane="best" departSpeed="max" from="36913434" to="988901293#1"/>
    <trip id="bus187" type="bus_bus" depart="3188.49" departLane="best" from="-548524980#1" to="36882311#0"/>
    <trip id="bus188" type="bus_bus" depart="3205.54" departLane="best" departSpeed="max" from="38540557#0" to="363452629#0"/>
    <trip id="bus189" type="bus_bus" depart="3222.59" departLane="best" departSpeed="max" from="503401205" to="363477541#1"/>
    <trip id="bus190" type="bus_bus" depart="3239.64" departLane="best" from="23076955" to="1148408386"/>
    <trip id="bus191" type="bus_bus" depart="3256.69" departLane="best" from="-112657837#1" to="36884561#0"/>
    <trip id="bus192" type="bus_bus" depart="3273.74" departLane="best" departSpeed="max" from="391160974" to="363477538"/>
    <trip id="bus193" type="bus_bus" depart="3290.79" departLane="best" from="36882311#0" to="1167355003"/>
    <trip id="bus194" type="bus_bus" depart="3307.84" departLane="best" from="1148155466" to="150785556#1"/>
    <trip id="bus195" type="bus_bus" depart="3324.89" departLane="best" from="338941361#1" to="1106310175"/>
    <trip id="bus196" type="bus_bus" depart="3341.94" departLane="best" departSpeed="max" from="38540557#0" to="-763048420"/>
    <trip id="bus197" type="bus_bus" depart="3358.99" departLane="best" departSpeed="max" from="154340361#0" to="363477541#1"/>
    <trip id="bus198" type="bus_bus" depart="3376.04" departLane="best" departSpeed="max" from="154340361#0" to="-112657837#0"/>
    <trip id="bus199" type="bus_bus" depart="3393.10" departLane="best" departSpeed="max" from="154340361#0" to="730432812"/>
    <trip id="bus200" type="bus_bus" depart="3410.15" departLane="best" from="508197004-AddedOffRampEdge" to="506310567"/>
    <trip id="bus201" type="bus_bus" depart="3427.20" departLane="best" from="1205171802#1" to="503401204"/>
    <trip id="bus202" type="bus_bus" depart="3444.25" departLane="best" from="508197004-AddedOffRampEdge" to="764332432#1"/>
    <trip id="bus203" type="bus_bus" depart="3461.30" departLane="best" departSpeed="max" from="154340361#0" to="403473952#1"/>
    <trip id="bus204" type="bus_bus" depart="3478.35" departLane="best" from="763048421#0" to="36882310#2"/>
    <trip id="bus205" type="bus_bus" depart="3495.40" departLane="best" departSpeed="max" from="111867003" to="1136611795"/>
    <trip id="bus206" type="bus_bus" depart="3512.45" departLane="best" from="154340361#1" to="-23515739#0"/>
    <trip id="bus207" type="bus_bus" depart="3529.50" departLane="best" from="1182221971" to="369295564#1"/>
    <trip id="bus208" type="bus_bus" depart="3546.55" departLane="best" from="152051153" to="1109911786"/>
    <trip id="bus209" type="bus_bus" depart="3563.60" departLane="best" departSpeed="max" from="23076927" to="1091198028"/>
    <trip id="bus210" type="bus_bus" depart="3580.65" departLane="best" from="36882310#2-AddedOnRampEdge" to="-23515739#0"/>
    <trip id="bus211" type="bus_bus" depart="3597.70" departLane="best" from="-250717629" to="36884561#1"/>

    <vType id="truck_truck" vClass="truck"/>
    <trip id="truck0" type="truck_truck" depart="0.00" departLane="best" from="36882311#1" to="-23515739#0"/>
    <trip id="truck1" type="truck_truck" depart="8.53" departLane="best" departSpeed="max" from="1148406432#0" to="1136611795"/>
    <trip id="truck2" type="truck_truck" depart="17.05" departLane="best" from="38542543" to="369295564#1"/>
    <trip id="truck3" type="truck_truck" depart="25.58" departLane="best" from="-548524980#1" to="-991536561"/>
    <trip id="truck4" type="truck_truck" depart="34.10" departLane="best" departSpeed="max" from="154340361#0" to="-250717629"/>
    <trip id="truck5" type="truck_truck" depart="42.63" departLane="best" departSpeed="max" from="111867003" to="363452629#0"/>
    <trip id="truck6" type="truck_truck" depart="51.15" departLane="best" from="36884561#0" to="363477541#1"/>
    <trip id="truck7" type="truck_truck" depart="59.68" departLane="best" departSpeed="max" from="111867003" to="36882310#0"/>
    <trip id="truck8" type="truck_truck" depart="68.20" departLane="best" from="503401204" to="112657837#1"/>
    <trip id="truck9" type="truck_truck" depart="76.73" departLane="best" from="503401204" to="38542534"/>
    <trip id="truck10" type="truck_truck" depart="85.25" departLane="best" from="1205171800" to="1106310175"/>
    <trip id="truck12" type="truck_truck" depart="102.30" departLane="best" from="503401204" to="36882310#2-AddedOnRampEdge"/>
    <trip id="truck13" type="truck_truck" depart="110.83" departLane="best" from="338941361#0" to="988901292"/>
    <trip id="truck14" type="truck_truck" depart="119.36" departLane="best" departSpeed="max" from="150785560" to="363477541#1"/>
    <trip id="truck15" type="truck_truck" depart="127.88" departLane="best" departSpeed="max" from="503401205" to="36882311#0-AddedOnRampEdge"/>
    <trip id="truck16" type="truck_truck" depart="136.41" departLane="best" from="508197005" to="36851759"/>
    <trip id="truck17" type="truck_truck" depart="144.93" departLane="best" departSpeed="max" from="38540557#0" to="-38542534"/>
    <trip id="truck19" type="truck_truck" depart="161.98" departLane="best" from="1047141876#1" to="1148155464"/>
    <trip id="truck20" type="truck_truck" depart="170.51" departLane="best" from="107215083" to="1182221970"/>
    <trip id="truck21" type="truck_truck" depart="179.03" departLane="best" from="36882311#0-AddedOnRampEdge" to="160558221#1"/>
    <trip id="truck22" type="truck_truck" depart="187.56" departLane="best" from="1148155464-AddedOnRampEdge" to="764332430"/>
    <trip id="truck23" type="truck_truck" depart="196.08" departLane="best" from="1047141876#2" to="36882310#2-AddedOnRampEdge"/>
    <trip id="truck24" type="truck_truck" depart="204.61" departLane="best" from="991536561" to="36884561#0"/>
    <trip id="truck25" type="truck_truck" depart="213.13" departLane="best" from="358318632" to="369295564#1"/>
    <trip id="truck27" type="truck_truck" depart="230.18" departLane="best" departSpeed="max" from="111867003" to="-250717629"/>
    <trip id="truck28" type="truck_truck" depart="238.71" departLane="best" departSpeed="max" from="111867003" to="764332431"/>
    <trip id="truck29" type="truck_truck" depart="247.24" departLane="best" from="52063523#0" to="150785556#0-AddedOffRampEdge"/>
    <trip id="truck30" type="truck_truck" depart="255.76" departLane="best" from="553253481-AddedOffRampEdge" to="362206700#0"/>
    <trip id="truck31" type="truck_truck" depart="264.29" departLane="best" from="358318632-AddedOffRampEdge" to="1148408386"/>
    <trip id="truck32" type="truck_truck" depart="272.81" departLane="best" from="150894905" to="1136611795"/>
    <trip id="truck33" type="truck_truck" depart="281.34" departLane="best" from="991536562#0" to="363452629#0"/>
    <trip id="truck34" type="truck_truck" depart="289.86" departLane="best" departSpeed="max" from="107215088" to="36882311#1"/>
    <trip id="truck35" type="truck_truck" depart="298.39" departLane="best" from="399001082" to="338941361#0"/>
    <trip id="truck36" type="truck_truck" depart="306.91" departLane="best" from="-988901293#0" to="208686728"/>
    <trip id="truck37" type="truck_truck" depart="315.44" departLane="best" from="991536562#0" to="363477540"/>
    <trip id="truck38" type="truck_truck" depart="323.96" departLane="best" from="93688006" to="638928391"/>
    <trip id="truck39" type="truck_truck" depart="332.49" departLane="best" from="1136611795" to="38684971#1-AddedOffRampEdge"/>
    <trip id="truck40" type="truck_truck" depart="341.01" departLane="best" departSpeed="max" from="36913434" to="363477541#1"/>
    <trip id="truck41" type="truck_truck" depart="349.54" departLane="best" from="1148155464-AddedOnRampEdge" to="36884561#0"/>
    <trip id="truck42" type="truck_truck" depart="358.07" departLane="best" departSpeed="max" from="107215088" to="763048421#0"/>
    <trip id="truck43" type="truck_truck" depart="366.59" departLane="best" departSpeed="max" from="23076927" to="764332432#1"/>
    <trip id="truck44" type="truck_truck" depart="375.12" departLane="best" from="23515739#0" to="1109911788"/>
    <trip id="truck45" type="truck_truck" depart="383.64" departLane="best" from="553253481-AddedOffRampEdge" to="638928391"/>