<?xml version="1.0" encoding="UTF-8"?>

<!-- generated on 2023-11-29 11:25:44 by Eclipse SUMO duarouter Version 1.18.0
<configuration xmlns:xsi="http://www.w3.org/2001/XMLSchema-instance" xsi:noNamespaceSchemaLocation="http://sumo.dlr.de/xsd/duarouterConfiguration.xsd">

    <input>
        <net-file value="C:\Users\NAGATEJA\Sumo\2023-10-20-13-38-47\osm.net.xml"/>
        <additional-files value="C:\Users\NAGATEJA\Sumo\2023-10-20-13-38-47\osm.bus.trips.xml"/>
        <route-files value="C:\Users\NAGATEJA\Sumo\2023-10-20-13-38-47\empty.net.xml"/>
    </input>

    <output>
        <output-file value="C:\Users\NAGATEJA\Sumo\2023-10-20-13-38-47\duarouter.rou.xml"/>
    </output>

</configuration>
-->

<routes xmlns:xsi="http://www.w3.org/2001/XMLSchema-instance" xsi:noNamespaceSchemaLocation="http://sumo.dlr.de/xsd/routes_file.xsd">
    <vType id="bus_bus" vClass="bus"/>
    <vehicle id="bus0" type="bus_bus" depart="0.00" departLane="best">
        <route edges="36882311#1 1091198032#0 399001079 -363449251 1064628344 1182221971 1182221968#2 1182221968#3 1182221968#4 1182221968#5 358318632 358318632-AddedOffRampEdge 764332431 147698259 46704070 234946738#0-AddedOnRampEdge 234946738#0 -23515739#0"/>
    </vehicle>
    <vehicle id="bus1" type="bus_bus" depart="17.05" departLane="best" departSpeed="max">
        <route edges="1148406432#0 1148406432#1 1148406432#1-AddedOffRampEdge 208827400 1054230460 764332430 150894905 1182221968#7 1109946344 1109946345 208686728 991536561 1091198028 1091198029 36882310#0 36882310#1 36882310#2-AddedOnRampEdge 36882310#2 1109911787 553253480 1148155464-AddedOnRampEdge 1148155464 1136611795"/>
    </vehicle>
    <vehicle id="bus2" type="bus_bus" depart="34.10" departLane="best">
        <route edges="38542543 338941365 763048421#1 -763048420 1109946345 208686728 991536561 1091198028 1091198029 36882310#0 36882310#1 36882310#2-AddedOnRampEdge 36882310#2 391160978 1205171802#0 508197005 369295564#1"/>
    </vehicle>
    <vehicle id="bus3" type="bus_bus" depart="51.15" departLane="best">
        <route edges="-548524980#1 1047141876#2 23515739#0 234946738#1 363477539#0 -988901293#0 93688006 1182221968#5 1182221968#6 1182221968#7 1182221968#8 1182221968#1 -1182221971 1182221970 363449251 399001082 1091198032#2 1091198030 -991536561"/>
    </vehicle>
    <vehicle id="bus4" type="bus_bus" depart="68.20" departLane="best" departSpeed="max">
        <route edges="154340361#0 154340361#1 36882313 1205171800 1109911788 1205171802#0 1205171802#1 107215083 359476589 359476587 760700372 503401204 362206700#0 362206700#2 1109946346 553253466 1182221968#1 1182221968#2 1182221968#3 1182221968#4 1182221968#5 1182221968#6 1182221968#7 1109946344 -250717629"/>
    </vehicle>
    <vehicle id="bus5" type="bus_bus" depart="85.25" departLane="best" departSpeed="max">
        <route edges="111867003 38540557#1 38684971#0 234946738#1 363477539#0 -988901293#0 93688006 1182221968#5 1182221968#6 1182221968#7 1109946344 1109946345 362206701#2 1148408386 363452629#0"/>
    </vehicle>
    <vehicle id="bus6" type="bus_bus" depart="102.30" departLane="best">
        <route edges="36884561#0 36884561#1 363477541#1"/>
    </vehicle>
    <vehicle id="bus7" type="bus_bus" depart="119.36" departLane="best" departSpeed="max">
        <route edges="111867003 38540557#1 38684971#0 234946738#1 363477539#0 -988901293#0 93688006 1182221968#5 1182221968#6 1182221968#7 1109946344 1109946345 208686728 991536561 1091198028 1091198029 36882310#0"/>
    </vehicle>
    <vehicle id="bus8" type="bus_bus" depart="136.41" departLane="best">
        <route edges="503401204 362206700#0 208686728 991536561 1091198028 1091198029 36882310#0 36882310#1 36882310#2-AddedOnRampEdge 36882310#2 1109911787 553253480 1148155464-AddedOnRampEdge 1148155464 1136611795 112657837#1"/>
    </vehicle>
    <vehicle id="bus9" type="bus_bus" depart="153.46" departLane="best">
        <route edges="503401204 152051153 38542534"/>
    </vehicle>
    <vehicle id="bus10" type="bus_bus" depart="170.51" departLane="best">
        <route edges="1205171800 1109911788 1205171802#0 1205171802#1 107215083 1106310175"/>
    </vehicle>
    <vehicle id="bus12" type="bus_bus" depart="204.61" departLane="best">
        <route edges="503401204 362206700#0 208686728 991536561 1091198028 1091198029 36882310#0 36882310#1 36882310#2-AddedOnRampEdge"/>
    </vehicle>
    <vehicle id="bus13" type="bus_bus" depart="221.66" departLane="best">
        <route edges="338941361#0 38542543 52245576#0 1148406432#1 1148406432#1-AddedOffRampEdge 1167355003 234946738#0-AddedOnRampEdge 234946738#0 234946738#1 363477539#0 -988901293#0 988901292"/>
    </vehicle>
    <vehicle id="bus14" type="bus_bus" depart="238.71" departLane="best" departSpeed="max">
        <route edges="150785560 1148155464-AddedOnRampEdge 1148155464 1136611795 -112657837#0 553253481 553253481-AddedOffRampEdge 1148155466 1109911788 1205171802#0 1205171802#1 107215083 359476589 359476587 760700372 503401204 362206700#0 362206700#2 1109946346 553253466 1182221968#1 1182221968#2 1182221968#3 1182221968#4 1182221968#5 358318632 358318632-AddedOffRampEdge 764332431 147698259 764500256#0 764500256#1-AddedOnRampEdge 764500256#1 363477541#0 363477541#1"/>
    </vehicle>
    <vehicle id="bus15" type="bus_bus" depart="255.76" departLane="best" departSpeed="max">
        <route edges="503401205 589685544 506310563 503401204 362206700#0 208686728 991536561 1091198028 1091198029 36882310#0 36882310#1 36882310#2-AddedOnRampEdge 36882310#2 1109911787 1109911786 36882311#0-AddedOnRampEdge"/>
    </vehicle>
    <vehicle id="bus16" type="bus_bus" depart="272.81" departLane="best">
        <route edges="508197005 369295564#1 508197004 508197004-AddedOffRampEdge 399001081 36882310#2-AddedOnRampEdge 36882310#2 1109911787 1148155463 403473952#1 36851759"/>
    </vehicle>
    <vehicle id="bus17" type="bus_bus" depart="289.86" departLane="best" departSpeed="max">
        <route edges="38540557#0 38540557#1 38684971#0 38684971#1 38684971#1-AddedOffRampEdge 363477538 160558221#0 -52245576#0 338941365 338941361#3 -38542534"/>
    </vehicle>
    <vehicle id="bus19" type="bus_bus" depart="323.96" departLane="best">
        <route edges="1047141876#1 1047141876#2 23515739#0 234946738#1 363477539#0 -988901293#0 93688006 1182221968#5 1182221968#6 1182221968#7 1109946344 1109946345 208686728 991536561 1091198028 1091198029 36882310#0 36882310#1 36882310#2-AddedOnRampEdge 36882310#2 1109911787 553253480 1148155464-AddedOnRampEdge 1148155464"/>
    </vehicle>
    <vehicle id="bus20" type="bus_bus" depart="341.01" departLane="best">
        <route edges="107215083 359476589 359476587 760700372 503401204 362206700#0 362206700#2 1109946346 553253466 1182221968#1 -1182221971 1182221970"/>
    </vehicle>
    <vehicle id="bus21" type="bus_bus" depart="358.07" departLane="best">
        <route edges="36882311#0-AddedOnRampEdge 36882311#0 36882311#1 1091198032#0 399001079 -363449251 1064628344 1182221971 1182221968#2 1182221968#3 1182221968#4 1182221968#5 1182221968#6 1182221968#7 1109946344 -250717629 338941361#0 38542543 52245576#0 160558221#1"/>
    </vehicle>
    <vehicle id="bus22" type="bus_bus" depart="375.12" departLane="best">
        <route edges="1148155464-AddedOnRampEdge 1148155464 1136611795 -112657837#0 553253481 553253481-AddedOffRampEdge 1148155466 1109911788 1205171802#0 1205171802#1 107215083 359476589 359476587 760700372 503401204 362206700#0 362206700#2 1109946346 553253466 1182221968#1 1182221968#2 1182221968#3 1182221968#4 1182221968#5 358318632 358318632-AddedOffRampEdge 764332431 147698259 764500256#0 764500256#1-AddedOnRampEdge 764500256#1 150785556#0 150785556#0-AddedOffRampEdge 150785556#1 1054230460 764332430"/>
    </vehicle>
    <vehicle id="bus23" type="bus_bus" depart="392.17" departLane="best">
        <route edges="1047141876#2 23515739#0 234946738#1 363477539#0 -988901293#0 93688006 1182221968#5 1182221968#6 1182221968#7 1109946344 1109946345 208686728 991536561 1091198028 1091198029 36882310#0 36882310#1 36882310#2-AddedOnRampEdge"/>
    </vehicle>
    <vehicle id="bus24" type="bus_bus" depart="409.22" departLane="best">
        <route edges="991536561 1091198028 1091198029 38542917 1091198032#0 399001079 -363449251 1064628344 1182221971 1182221968#2 1182221968#3 1182221968#4 1182221968#5 358318632 358318632-AddedOffRampEdge 764332431 147698259 46704070 234946738#0-AddedOnRampEdge 234946738#0 -23515739#0 36884561#0"/>
    </vehicle>
    <vehicle id="bus25" type="bus_bus" depart="426.27" departLane="best">
        <route edges="358318632 358318632-AddedOffRampEdge 764332431 147698259 764500256#0 764500256#1-AddedOnRampEdge 764500256#1 150785556#0 150785556#0-AddedOffRampEdge 150785556#1 1054230460 764332430 150894905 1182221968#7 1109946344 1109946345 208686728 991536561 1091198028 1091198029 36882310#0 36882310#1 36882310#2-AddedOnRampEdge 36882310#2 391160978 1205171802#0 508197005 369295564#1"/>
    </vehicle>
    <vehicle id="bus27" type="bus_bus" depart="460.37" departLane="best" departSpeed="max">
        <route edges="111867003 38540557#1 38684971#0 234946738#1 363477539#0 -988901293#0 93688006 1182221968#5 1182221968#6 1182221968#7 1109946344 -250717629"/>
    </vehicle>
    <vehicle id="bus28" type="bus_bus" depart="477.42" departLane="best" departSpeed="max">
        <route edges="111867003 38540557#1 38684971#0 234946738#1 363477539#0 -988901293#0 93688006 1182221968#5 358318632 358318632-AddedOffRampEdge 764332431"/>
    </vehicle>
    <vehicle id="bus29" type="bus_bus" depart="494.47" departLane="best">
        <route edges="52063523#0 52063523#1 362900184 359476587 760700372 503401204 362206700#0 362206700#2 1109946346 553253466 1182221968#1 1182221968#2 1182221968#3 1182221968#4 1182221968#5 358318632 358318632-AddedOffRampEdge 764332431 147698259 764500256#0 764500256#1-AddedOnRampEdge 764500256#1 150785556#0 150785556#0-AddedOffRampEdge"/>
    </vehicle>
    <vehicle id="bus30" type="bus_bus" depart="511.52" departLane="best">
        <route edges="553253481-AddedOffRampEdge 1148155466 1109911788 1205171802#0 1205171802#1 107215083 359476589 359476587 760700372 503401204 362206700#0"/>
    </vehicle>
    <vehicle id="bus31" type="bus_bus" depart="528.57" departLane="best">
        <route edges="358318632-AddedOffRampEdge 764332431 147698259 764500256#0 764500256#1-AddedOnRampEdge 764500256#1 150785556#0 150785556#0-AddedOffRampEdge 150785556#1 1054230460 764332430 150894905 1182221968#7 1109946344 1109946345 362206701#2 1148408386"/>
    </vehicle>
    <vehicle id="bus32" type="bus_bus" depart="545.62" departLane="best">
        <route edges="150894905 1182221968#7 1109946344 1109946345 208686728 991536561 1091198028 1091198029 36882310#0 36882310#1 36882310#2-AddedOnRampEdge 36882310#2 1109911787 553253480 1148155464-AddedOnRampEdge 1148155464 1136611795"/>
    </vehicle>
    <vehicle id="bus33" type="bus_bus" depart="562.67" departLane="best">
        <route edges="991536562#0 362206701#2 1148408386 363452629#0"/>
    </vehicle>
    <vehicle id="bus34" type="bus_bus" depart="579.72" departLane="best" departSpeed="max">
        <route edges="107215088 107215088-AddedOffRampEdge 1148718165 362900184 359476587 760700372 503401204 362206700#0 208686728 991536561 1091198028 1091198029 36882310#0 399001083 36882311#1"/>
    </vehicle>
    <vehicle id="bus35" type="bus_bus" depart="596.78" departLane="best">
        <route edges="399001082 1091198032#2 1091198030 -991536561 991536562#0 362206700#2 1109946346 553253466 1182221968#1 1182221968#2 1182221968#3 1182221968#4 1182221968#5 1182221968#6 1182221968#7 1109946344 -250717629 338941361#0"/>
    </vehicle>
    <vehicle id="bus36" type="bus_bus" depart="613.83" departLane="best">
        <route edges="-988901293#0 93688006 1182221968#5 1182221968#6 1182221968#7 1109946344 1109946345 208686728"/>
    </vehicle>
    <vehicle id="bus37" type="bus_bus" depart="630.88" departLane="best">
        <route edges="991536562#0 362206700#2 1109946346 553253466 1182221968#1 1182221968#2 1182221968#3 363477540"/>
    </vehicle>
    <vehicle id="bus38" type="bus_bus" depart="647.93" departLane="best">
        <route edges="93688006 1182221968#5 1182221968#6 1182221968#7 1182221968#8 1182221968#1 1182221968#2 52032727 638928391"/>
    </vehicle>
    <vehicle id="bus39" type="bus_bus" depart="664.98" departLane="best">
        <route edges="1136611795 -112657837#0 553253481 553253481-AddedOffRampEdge 1148155466 1109911788 1205171802#0 1205171802#1 107215083 359476589 359476587 760700372 503401204 362206700#0 362206700#2 1109946346 553253466 1182221968#1 1182221968#2 1182221968#3 1182221968#4 1182221968#5 358318632 358318632-AddedOffRampEdge 764332431 147698259 46704070 234946738#0-AddedOnRampEdge 234946738#0 38684971#1 38684971#1-AddedOffRampEdge"/>
    </vehicle>
    <vehicle id="bus40" type="bus_bus" depart="682.03" departLane="best" departSpeed="max">
        <route edges="36913434 1110191850 1109911788 1205171802#0 1205171802#1 107215083 359476589 359476587 760700372 503401204 362206700#0 362206700#2 1109946346 553253466 1182221968#1 1182221968#2 1182221968#3 1182221968#4 1182221968#5 358318632 358318632-AddedOffRampEdge 764332431 147698259 764500256#0 764500256#1-AddedOnRampEdge 764500256#1 363477541#0 363477541#1"/>
    </vehicle>
    <vehicle id="bus41" type="bus_bus" depart="699.08" departLane="best">
        <route edges="1148155464-AddedOnRampEdge 1148155464 1136611795 -112657837#0 553253481 553253481-AddedOffRampEdge 1148155466 1109911788 1205171802#0 1205171802#1 107215083 359476589 359476587 760700372 503401204 362206700#0 362206700#2 1109946346 553253466 1182221968#1 1182221968#2 1182221968#3 1182221968#4 1182221968#5 358318632 358318632-AddedOffRampEdge 764332431 147698259 46704070 234946738#0-AddedOnRampEdge 234946738#0 -23515739#0 36884561#0"/>
    </vehicle>
    <vehicle id="bus42" type="bus_bus" depart="716.13" departLane="best" departSpeed="max">
        <route edges="107215088 107215088-AddedOffRampEdge 1148718165 362900184 359476587 760700372 503401204 152051153 38542534 763048421#0"/>
    </vehicle>
    <vehicle id="bus43" type="bus_bus" depart="733.18" departLane="best" departSpeed="max">
        <route edges="23076927 764332432#0 764332432#1"/>
    </vehicle>
    <vehicle id="bus44" type="bus_bus" depart="750.23" departLane="best">
        <route edges="23515739#0 234946738#1 363477539#0 -988901293#0 93688006 1182221968#5 1182221968#6 1182221968#7 1109946344 1109946345 208686728 991536561 1091198028 1091198029 36882310#0 36882310#1 36882310#2-AddedOnRampEdge 36882310#2 1109911787 553253480 1148155464-AddedOnRampEdge 1148155464 1136611795 -112657837#0 553253481 553253481-AddedOffRampEdge 1148155466 1109911788"/>
    </vehicle>
    <vehicle id="bus45" type="bus_bus" depart="767.28" departLane="best">
        <route edges="553253481-AddedOffRampEdge 1148155466 1109911788 1205171802#0 1205171802#1 107215083 359476589 359476587 760700372 503401204 362206700#0 362206700#2 1109946346 553253466 1182221968#1 1182221968#2 52032727 638928391"/>
    </vehicle>
    <vehicle id="bus46" type="bus_bus" depart="784.33" departLane="best" departSpeed="max">
        <route edges="1148406432#0 1148406432#1 1148406432#1-AddedOffRampEdge 1167355003 234946738#0-AddedOnRampEdge 234946738#0 -23515739#0 36884561#0"/>
    </vehicle>
    <vehicle id="bus47" type="bus_bus" depart="801.38" departLane="best">
        <route edges="36882310#0 36882310#1 36882310#2-AddedOnRampEdge 36882310#2 391160978 1205171802#0 1205171802#1 107215083 1106310175"/>
    </vehicle>
    <vehicle id="bus48" type="bus_bus" depart="818.44" departLane="best" departSpeed="max">
        <route edges="391160974 36882311#0-AddedOnRampEdge 36882311#0 36882311#1 1091198032#0 399001079 -363449251 1064628344 1182221971 1182221968#2 1182221968#3 1182221968#4 1182221968#5 358318632 358318632-AddedOffRampEdge 764332431 147698259 764500256#0 764500256#1-AddedOnRampEdge 764500256#1 363477541#0 363477541#1"/>
    </vehicle>
    <vehicle id="bus49" type="bus_bus" depart="835.49" departLane="best" departSpeed="max">
        <route edges="391160974 36882311#0-AddedOnRampEdge 36882311#0 36882311#1 1091198032#0 399001079 -363449251 1064628344 1182221971 1182221968#2 1182221968#3 1182221968#4 1182221968#5 358318632 358318632-AddedOffRampEdge 764332431 147698259 764500256#0 764500256#1-AddedOnRampEdge 764500256#1 363477541#0 363477541#1"/>
    </vehicle>
    <vehicle id="bus50" type="bus_bus" depart="852.54" departLane="best">
        <route edges="-112657837#0 553253481 553253481-AddedOffRampEdge 1148155466 1109911788 1205171802#0 1205171802#1 107215083 359476589 359476587 760700372 503401204 362206700#0 362206700#2 1109946346 553253466 1182221968#1 1182221968#2 1182221968#3 1182221968#4 1182221968#5 358318632 358318632-AddedOffRampEdge 764332431 147698259 764500256#0 764500256#1-AddedOnRampEdge 764500256#1 150785556#0 150785556#0-AddedOffRampEdge 150785556#1 1054230460 764332430 150894905"/>
    </vehicle>
    <vehicle id="bus51" type="bus_bus" depart="869.59" departLane="best">
        <route edges="1182221971 1182221968#2 1182221968#3 1182221968#4 1182221968#5 1182221968#6 1182221968#7 1109946344 -250717629 338941361#0 338941361#1 338941361#3"/>
    </vehicle>
    <vehicle id="bus52" type="bus_bus" depart="886.64" departLane="best">
        <route edges="52063523#0 52063523#1 362900184 359476587 760700372 503401204 362206700#0 208686728 991536561 1091198028 1091198029 36882310#0 36882310#1 36882310#2-AddedOnRampEdge 36882310#2 1109911787 553253480"/>
    </vehicle>
    <vehicle id="bus53" type="bus_bus" depart="903.69" departLane="best">
        <route edges="52063523#0 52063523#1 362900184 359476587 760700372 503401204 362206700#0 362206700#2 1109946346 553253466 1182221968#1 1182221968#2 1182221968#3 1182221968#4 1182221968#5 358318632 358318632-AddedOffRampEdge 764332431"/>
    </vehicle>
    <vehicle id="bus54" type="bus_bus" depart="920.74" departLane="best">
        <route edges="1047141876#2 23515739#0 234946738#1 363477539#0 -988901293#0 93688006 1182221968#5 1182221968#6 1182221968#7 1182221968#8 1182221968#1 -1182221971 1182221970 363449251"/>
    </vehicle>
    <vehicle id="bus56" type="bus_bus" depart="954.84" departLane="best">
        <route edges="23076955 399001079 -363449251 1064628344 1182221971 1182221968#2 1182221968#3 1182221968#4 1182221968#5 358318632 358318632-AddedOffRampEdge 764332431 147698259 764500256#0 764500256#1-AddedOnRampEdge 764500256#1 363477541#0 363477541#1"/>
    </vehicle>
    <vehicle id="bus57" type="bus_bus" depart="971.89" departLane="best">
        <route edges="1148155464-AddedOnRampEdge 1148155464 1136611795 -112657837#0 553253481 553253481-AddedOffRampEdge 1148155466 1109911788 1205171802#0 1205171802#1 107215083 359476589 359476587 760700372 503401204 362206700#0 362206700#2 1109946346 553253466 1182221968#1 1182221968#2 52032727 638928391"/>
    </vehicle>
    <vehicle id="bus58" type="bus_bus" depart="988.94" departLane="best" departSpeed="max">
        <route edges="154340361#0 154340361#1 36882313 1205171800 553253480 1148155464-AddedOnRampEdge 1148155464 1136611795 112657837#1"/>
    </vehicle>
    <vehicle id="bus59" type="bus_bus" depart="1005.99" departLane="best">
        <route edges="338941361#1 763048421#1 -763048420 1109946345 208686728 991536561 1091198028 1091198029 36882310#0 36882310#1 36882310#2-AddedOnRampEdge"/>
    </vehicle>
    <vehicle id="bus60" type="bus_bus" depart="1023.04" departLane="best" departSpeed="max">
        <route edges="1110178941 362206700#0 362206700#2 1109946346 553253466 1182221968#1 1182221968#2 1182221968#3 1182221968#4 1182221968#5 358318632 358318632-AddedOffRampEdge 764332431 147698259 764500256#0 764500256#1-AddedOnRampEdge 764500256#1 150785556#0"/>
    </vehicle>
    <vehicle id="bus61" type="bus_bus" depart="1040.09" departLane="best">
        <route edges="991536562#0 362206700#2 1109946346 553253466 1182221968#1 1182221968#2 1182221968#3 363477540 988901293#0 988901293#1 764332432#2 36907507#0"/>
    </vehicle>
    <vehicle id="bus62" type="bus_bus" depart="1057.15" departLane="best">
        <route edges="160558221#0 1148406432#1 1148406432#1-AddedOffRampEdge 208827400 1054230460 764332430 150894905 1182221968#7 1109946344 1109946345 362206701#2 1148408386 363452629#0"/>
    </vehicle>
    <vehicle id="bus63" type="bus_bus" depart="1074.20" departLane="best" departSpeed="max">
        <route edges="107215088 107215088-AddedOffRampEdge 1148718165 362900184 359476587 760700372 503401204 362206700#0 208686728 991536561 1091198028 1091198029 36882310#0 36882310#1 36882310#2-AddedOnRampEdge 36882310#2 1109911787 1148155463"/>
    </vehicle>
    <vehicle id="bus64" type="bus_bus" depart="1091.25" departLane="best" departSpeed="max">
        <route edges="111867003 38540557#1 38684971#0 234946738#1 363477539#0 -988901293#0 93688006 1182221968#5 1182221968#6 1182221968#7 1109946344 1109946345 208686728 991536561 1091198028 1091198029 36882310#0 36882310#1 36882310#2-AddedOnRampEdge 36882310#2 1109911787 553253480 1148155464-AddedOnRampEdge 1148155464 1136611795"/>
    </vehicle>
    <vehicle id="bus66" type="bus_bus" depart="1125.35" departLane="best" departSpeed="max">
        <route edges="111867003 38540557#1 38684971#0 234946738#1 363477539#0 -988901293#0 93688006 1182221968#5 1182221968#6 1182221968#7 1109946344 1109946345 208686728 991536561 1091198028 1091198029 36882310#0 36882310#1 36882310#2-AddedOnRampEdge 36882310#2 391160978 1205171802#0 1205171802#1 107215083 506310567 730432812"/>
    </vehicle>
    <vehicle id="bus67" type="bus_bus" depart="1142.40" departLane="best">
        <route edges="508197005 369295564#1 508197004 508197004-AddedOffRampEdge 52032471 399001083 36882311#1 1091198032#0 399001079 -363449251 1064628344 1182221971 1182221968#2 1182221968#3 363477540 988901293#0"/>
    </vehicle>
    <vehicle id="bus68" type="bus_bus" depart="1159.45" departLane="best">
        <route edges="-112657837#0 553253481 553253481-AddedOffRampEdge 1148155466 1109911788 1205171802#0 1205171802#1 107215083 359476589 359476587 760700372 503401204 362206700#0 362206700#2 1109946346 553253466 1182221968#1 1182221968#2 1182221968#3 363477540 988901293#0 988901293#1 764332432#2 36907507#0"/>
    </vehicle>
    <vehicle id="bus69" type="bus_bus" depart="1176.50" departLane="best" departSpeed="max">
        <route edges="111867003 38540557#1 38684971#0 234946738#1 363477539#0 -988901293#0 93688006 1182221968#5 1182221968#6 1182221968#7 1182221968#8 1182221968#1 -1182221971 1182221970 363449251 399001082 1091198032#2 1091198030"/>
    </vehicle>
    <vehicle id="bus70" type="bus_bus" depart="1193.55" departLane="best">
        <route edges="763048421#0 763048421#1 -763048420 1109946345 208686728 991536561 1091198028 1091198029 36882310#0 36882310#1 36882310#2-AddedOnRampEdge 36882310#2 1109911787 1148155463 403473952#1 36851759"/>
    </vehicle>
    <vehicle id="bus71" type="bus_bus" depart="1210.60" departLane="best" departSpeed="max">
        <route edges="23076927 -988901292 93688006 1182221968#5 1182221968#6 1182221968#7 1109946344 1109946345 208686728 991536561 1091198028 1091198029 36882310#0 36882310#1 36882310#2-AddedOnRampEdge 36882310#2 391160978 1205171802#0 508197005"/>
    </vehicle>
    <vehicle id="bus72" type="bus_bus" depart="1227.65" departLane="best">
        <route edges="503401204 362206700#0 362206700#2"/>
    </vehicle>
    <vehicle id="bus73" type="bus_bus" depart="1244.70" departLane="best">
        <route edges="1064628344 1182221971 1182221968#2 1182221968#3 1182221968#4 1182221968#5 1182221968#6 1182221968#7 1109946344 -250717629 338941361#0 338941361#1 338941361#3"/>
    </vehicle>
    <vehicle id="bus74" type="bus_bus" depart="1261.75" departLane="best" departSpeed="max">
        <route edges="154340361#0 154340361#1 36882313 1205171800 1109911788 1205171802#0 1205171802#1 107215083 359476589 359476587 760700372 503401204 362206700#0 362206700#2"/>
    </vehicle>
    <vehicle id="bus75" type="bus_bus" depart="1278.80" departLane="best">
        <route edges="38542534 763048421#0 763048421#1 -763048420 1109946345 362206700#2 1109946346 553253466 1182221968#1 1182221968#2 1182221968#3 363477540 988901293#0 988901293#1 764332432#2 36907507#0"/>
    </vehicle>
    <vehicle id="bus77" type="bus_bus" depart="1312.91" departLane="best">
        <route edges="508197005 369295564#1 508197004 508197004-AddedOffRampEdge 52032471 399001083 36882311#1 1091198032#0 399001079 -363449251 1064628344 1182221971 1182221968#2 1182221968#3 1182221968#4 1182221968#5 1182221968#6 1182221968#7 1109946344 -250717629 338941361#0 38542543 52245576#0 1148406432#1"/>
    </vehicle>
    <vehicle id="bus78" type="bus_bus" depart="1329.96" departLane="best" departSpeed="max">
        <route edges="1110178941 362206700#0 362206700#2 1109946346 553253466 1182221968#1 1182221968#2 1182221968#3 1182221968#4 1182221968#5 358318632 358318632-AddedOffRampEdge"/>
    </vehicle>
    <vehicle id="bus79" type="bus_bus" depart="1347.01" departLane="best" departSpeed="max">
        <route edges="154340361#0 154340361#1 36882313 1205171800 1109911788 1205171802#0 1205171802#1 107215083 359476589 359476587 760700372 503401204 362206700#0 362206700#2 1109946346 553253466 1182221968#1 -1182221971 1182221970"/>
    </vehicle>
    <vehicle id="bus80" type="bus_bus" depart="1364.06" departLane="best">
        <route edges="208686728 991536561 1091198028 1091198029 38542917 1091198032#0 399001079 -363449251 1064628344 1182221971 1182221968#2 52032727 638928391"/>
    </vehicle>
    <vehicle id="bus81" type="bus_bus" depart="1381.11" departLane="best">
        <route edges="208686728 991536561 1091198028 1091198029 36882310#0 36882310#1 36882310#2-AddedOnRampEdge 36882310#2 1109911787 553253480 1148155464-AddedOnRampEdge 1148155464 1136611795 -112657837#0 553253481"/>
    </vehicle>
    <vehicle id="bus82" type="bus_bus" depart="1398.16" departLane="best">
        <route edges="93688006 1182221968#5 1182221968#6 1182221968#7 1109946344 -250717629 338941361#0 338941361#1 338941361#3"/>
    </vehicle>
    <vehicle id="bus83" type="bus_bus" depart="1415.21" departLane="best">
        <route edges="234946738#0-AddedOnRampEdge 234946738#0 234946738#1 363477539#0 -988901293#0 93688006 1182221968#5 1182221968#6 1182221968#7 1109946344 1109946345 208686728 991536561 1091198028 1091198029 36882310#0 36882310#1 36882310#2-AddedOnRampEdge 36882310#2 1109911787 553253480 1148155464-AddedOnRampEdge 1148155464 1136611795 112657837#1"/>
    </vehicle>
    <vehicle id="bus84" type="bus_bus" depart="1432.26" departLane="best">
        <route edges="152051153 38542534 763048421#0 763048421#1 -763048420 1109946345 362206700#2 1109946346 553253466 1182221968#1 1182221968#2 1182221968#3 1182221968#4 1182221968#5 358318632 358318632-AddedOffRampEdge 764332431 147698259 764500256#0 764500256#1-AddedOnRampEdge 764500256#1 1047141876#1 548524980#1"/>
    </vehicle>
    <vehicle id="bus85" type="bus_bus" depart="1449.31" departLane="best" departSpeed="max">
        <route edges="150785560 1148155464-AddedOnRampEdge 1148155464 1136611795 -112657837#0 553253481 553253481-AddedOffRampEdge 1148155466 1109911788 1205171802#0 1205171802#1 107215083 359476589 359476587 760700372 503401204 362206700#0 362206700#2 1109946346 553253466 1182221968#1 1182221968#2 1182221968#3 363477540 988901293#0 988901293#1"/>
    </vehicle>
    <vehicle id="bus86" type="bus_bus" depart="1466.36" departLane="best" departSpeed="max">
        <route edges="23076927 -988901292 93688006 1182221968#5 1182221968#6 1182221968#7 1109946344 -250717629 338941361#0"/>
    </vehicle>
    <vehicle id="bus87" type="bus_bus" depart="1483.41" departLane="best">
        <route edges="764332432#0 764332432#1 -988901293#1 -988901293#0 93688006 1182221968#5 1182221968#6 1182221968#7 1182221968#8 1182221968#1 -1182221971 1182221970 363449251 399001082 1091198032#2 1091198030 -991536561 991536562#0"/>
    </vehicle>
    <vehicle id="bus88" type="bus_bus" depart="1500.46" departLane="best">
        <route edges="1109911787 553253480 1148155464-AddedOnRampEdge 1148155464 1136611795 -112657837#0 553253481 553253481-AddedOffRampEdge 1148155466 1109911788 1205171802#0"/>
    </vehicle>
    <vehicle id="bus89" type="bus_bus" depart="1517.52" departLane="best">
        <route edges="93688006 1182221968#5 1182221968#6 1182221968#7 1109946344 1109946345 208686728 991536561 1091198028 1091198029 36882310#0 36882310#1 36882310#2-AddedOnRampEdge 36882310#2 1109911787 1148155463 403473952#1 36851759"/>
    </vehicle>
    <vehicle id="bus90" type="bus_bus" depart="1534.57" departLane="best">
        <route edges="763048421#0 763048421#1 -763048420 1109946345 208686728 991536561 1091198028 1091198029 36882310#0 36882310#1 36882310#2-AddedOnRampEdge 36882310#2 1109911787 1148155463 403473952#1"/>
    </vehicle>
    <vehicle id="bus91" type="bus_bus" depart="1551.62" departLane="best">
        <route edges="-763048420 1109946345 208686728 991536561 1091198028 1091198029 36882310#0 36882310#1 36882310#2-AddedOnRampEdge 36882310#2 1109911787 1148155463 403473952#1 36851759"/>
    </vehicle>
    <vehicle id="bus93" type="bus_bus" depart="1585.72" departLane="best">
        <route edges="1109911787 1109911786 36882311#0-AddedOnRampEdge 36882311#0 36882311#1 1091198032#0 399001079 -363449251 1064628344 1182221971 1182221968#2 1182221968#3 363477540 988901293#0 988901293#1 764332432#2"/>
    </vehicle>
    <vehicle id="bus94" type="bus_bus" depart="1602.77" departLane="best">
        <route edges="1047141876#1 1047141876#2 23515739#0 234946738#1 363477539#0 -988901293#0 93688006 1182221968#5 1182221968#6 1182221968#7 1109946344"/>
    </vehicle>
    <vehicle id="bus95" type="bus_bus" depart="1619.82" departLane="best">