<?xml version="1.0" encoding="UTF-8"?>

<!-- generated on 2023-10-20 13:44:09 by Eclipse SUMO netedit Version 1.18.0
<configuration xmlns:xsi="http://www.w3.org/2001/XMLSchema-instance" xsi:noNamespaceSchemaLocation="http://sumo.dlr.de/xsd/neteditConfiguration.xsd">

    <input>
        <sumocfg-file value="C:\Users\NAGATEJA\Sumo\2023-10-09-12-17-03\Newupdate.sumocfg"/>
        <sumo-net-file value="C:\Users\NAGATEJA\Sumo\2023-10-20-13-38-47\osm.net.xml.gz"/>
    </input>

    <output>
        <output-file value="C:\Users\NAGATEJA\Sumo\2023-10-20-13-38-47\osm.net.xml.gz"/>
        <output.street-names value="true"/>
    </output>

    <processing>
        <geometry.min-radius.fix.railways value="false"/>
        <geometry.max-grade.fix value="false"/>
        <offset.disable-normalization value="true"/>
        <lefthand value="1"/>
    </processing>

    <junctions>
        <no-turnarounds value="true"/>
        <junctions.corner-detail value="5"/>
        <junctions.limit-turn-speed value="5.50"/>
        <rectangular-lane-cut value="0"/>
    </junctions>

    <pedestrian>
        <walkingareas value="0"/>
    </pedestrian>

</configuration>
-->

<net version="1.16" junctionCornerDetail="5" lefthand="true" limitTurnSpeed="5.50" xmlns:xsi="http://www.w3.org/2001/XMLSchema-instance" xsi:noNamespaceSchemaLocation="http://sumo.dlr.de/xsd/net_file.xsd">

    <location netOffset="-779318.92,-1434869.69" convBoundary="0.00,0.00,3000.08,1990.49" origBoundary="77.574776,12.966735,77.602399,12.984613" projParameter="+proj=utm +zone=43 +ellps=WGS84 +datum=WGS84 +units=m +no_defs"/>

    <type id="highway.primary" priority="12" numLanes="2" speed="27.78" disallow="tram rail_urban rail rail_electric rail_fast ship" oneway="0"/>
    <type id="highway.primary_link" priority="7" numLanes="1" speed="22.22" disallow="tram rail_urban rail rail_electric rail_fast ship" oneway="0"/>
    <type id="highway.secondary" priority="11" numLanes="1" speed="27.78" disallow="tram rail_urban rail rail_electric rail_fast ship" oneway="0"/>
    <type id="highway.secondary_link" priority="6" numLanes="1" speed="22.22" disallow="tram rail_urban rail rail_electric rail_fast ship" oneway="0"/>
    <type id="highway.tertiary" priority="10" numLanes="1" speed="22.22" disallow="tram rail_urban rail rail_electric rail_fast ship" oneway="0"/>

    <edge id=":10121158807_0" function="internal">
        <lane id=":10121158807_0_0" index="0" disallow="tram rail_urban rail rail_electric rail_fast ship" speed="27.78" length="8.34" shape="1335.88,1050.10 1338.15,1049.24 1339.99,1049.33 1341.79,1049.37 1343.95,1048.36"/>
        <lane id=":10121158807_0_1" index="1" disallow="tram rail_urban rail rail_electric rail_fast ship" speed="27.78" length="8.34" shape="1334.16,1047.40 1336.36,1046.58 1338.15,1046.71 1339.91,1046.78 1342.01,1045.81"/>
    </edge>
    <edge id=":10595455535_0" function="internal">
        <lane id=":10595455535_0_0" index="0" disallow="tram rail_urban rail rail_electric rail_fast ship" speed="16.76" length="5.52" shape="2499.39,502.95 2498.02,502.84 2497.10,503.63 2496.13,504.60 2494.62,505.00"/>
    </edge>
    <edge id=":10595455535_1" function="internal">
        <lane id=":10595455535_1_0" index="0" disallow="tram rail_urban rail rail_electric rail_fast ship" speed="3.65" length="4.67" shape="2499.39,502.95 2497.97,503.18 2497.27,503.74 2497.30,504.63 2498.06,505.86"/>
    </edge>
    <edge id=":10595455541_0" function="internal">
        <lane id=":10595455541_0_0" index="0" disallow="tram rail_urban rail rail_electric rail_fast ship" speed="12.69" length="15.29" shape="2519.67,508.11 2516.90,508.66 2513.53,508.41 2509.54,507.35 2504.94,505.50"/>
    </edge>
    <edge id=":10595455541_1" function="internal">
        <lane id=":10595455541_1_0" index="0" disallow="tram rail_urban rail rail_electric rail_fast ship" speed="22.22" length="17.55" shape="2519.67,508.11 2503.23,514.25"/>
    </edge>
    <edge id=":10595455541_2" function="internal">
        <lane id=":10595455541_2_0" index="0" disallow="tram rail_urban rail rail_electric rail_fast ship" speed="3.66" length="1.34" shape="2519.67,508.11 2519.05,509.29"/>
    </edge>
    <edge id=":10595455541_9" function="internal">
        <lane id=":10595455541_9_0" index="0" disallow="tram rail_urban rail rail_electric rail_fast ship" speed="3.66" length="3.38" shape="2519.05,509.29 2518.99,509.40 2519.02,510.30 2519.76,510.81 2521.21,510.95"/>
    </edge>
    <edge id=":10595455541_3" function="internal">
        <lane id=":10595455541_3_0" index="0" disallow="tram rail_urban rail rail_electric rail_fast ship" speed="22.22" length="18.17" shape="2504.19,517.31 2521.21,510.95"/>
    </edge>
    <edge id=":10595455541_4" function="internal">
        <lane id=":10595455541_4_0" index="0" disallow="tram rail_urban rail rail_electric rail_fast ship" speed="7.47" length="6.93" shape="2504.19,517.31 2510.13,514.72 2510.40,514.37"/>
    </edge>
    <edge id=":10595455541_5" function="internal">
        <lane id=":10595455541_5_0" index="0" disallow="tram rail_urban rail rail_electric rail_fast ship" speed="3.65" length="1.44" shape="2504.19,517.31 2505.09,516.19"/>
    </edge>
    <edge id=":10595455541_10" function="internal">
        <lane id=":10595455541_10_0" index="0" disallow="tram rail_urban rail rail_electric rail_fast ship" speed="7.47" length="13.10" shape="2510.40,514.37 2512.24,511.89 2510.51,508.82 2504.94,505.50"/>
    </edge>
    <edge id=":10595455541_11" function="internal">
        <lane id=":10595455541_11_0" index="0" disallow="tram rail_urban rail rail_electric rail_fast ship" speed="3.65" length="3.23" shape="2505.09,516.19 2505.23,515.30 2504.61,514.66 2503.23,514.25"/>
    </edge>
    <edge id=":10595455541_6" function="internal">
        <lane id=":10595455541_6_0" index="0" disallow="tram rail_urban rail rail_electric rail_fast ship" speed="5.46" length="9.91" shape="2503.60,508.41 2506.36,510.05 2507.22,511.57 2506.17,512.97 2503.23,514.25"/>
    </edge>
    <edge id=":10595455541_7" function="internal">
        <lane id=":10595455541_7_0" index="0" disallow="tram rail_urban rail rail_electric rail_fast ship" speed="13.82" length="18.22" shape="2503.60,508.41 2508.84,510.47 2513.52,511.58 2517.64,511.74 2521.21,510.95"/>
    </edge>
    <edge id=":10595455541_8" function="internal">
        <lane id=":10595455541_8_0" index="0" disallow="tram rail_urban rail rail_electric rail_fast ship" speed="3.65" length="4.67" shape="2503.60,508.41 2505.03,508.18 2505.72,507.62 2505.69,506.73 2504.94,505.50"/>
    </edge>
    <edge id=":107215088-AddedOffRampNode_0" function="internal">
        <lane id=":107215088-AddedOffRampNode_0_0" index="0" disallow="tram rail_urban rail rail_electric rail_fast ship" speed="27.78" length="8.27" shape="2622.45,1527.93 2619.96,1528.20 2618.16,1527.62 2616.36,1527.04 2613.86,1527.32"/>
        <lane id=":107215088-AddedOffRampNode_0_1" index="1" disallow="tram rail_urban rail rail_electric rail_fast ship" speed="27.78" length="8.27" shape="2622.45,1527.93 2614.83,1530.36"/>
        <lane id=":107215088-AddedOffRampNode_0_2" index="2" disallow="tram rail_urban rail rail_electric rail_fast ship" speed="27.78" length="8.27" shape="2623.42,1530.98 2615.80,1533.41"/>
    </edge>
    <edge id=":1087824452_0" function="internal">
        <lane id=":1087824452_0_0" index="0" disallow="tram rail_urban rail rail_electric rail_fast ship" speed="27.78" length="10.55" shape="753.06,668.96 750.81,671.02 749.80,673.00 748.79,674.99 746.56,677.06"/>
        <lane id=":1087824452_0_1" index="1" disallow="tram rail_urban rail rail_electric rail_fast ship" speed="27.78" length="10.55" shape="754.80,671.64 752.56,673.70 751.55,675.68 750.55,677.67 748.31,679.74"/>
    </edge>
    <edge id=":1087824452_2" function="internal">
        <lane id=":1087824452_2_0" index="0" disallow="tram rail_urban rail rail_electric rail_fast ship" speed="12.54" length="9.01" shape="758.28,677.01 755.89,678.27 754.08,679.03 752.62,680.09 751.32,682.27"/>
    </edge>
    <edge id=":1087824452_3" function="internal">
        <lane id=":1087824452_3_0" index="0" disallow="tram rail_urban rail rail_electric rail_fast ship" speed="6.16" length="14.02" shape="754.25,683.54 755.63,679.27 755.10,677.21 752.67,677.37 748.31,679.74"/>
    </edge>
    <edge id=":1087824452_4" function="internal">
        <lane id=":1087824452_4_0" index="0" disallow="tram rail_urban rail rail_electric rail_fast ship" speed="3.65" length="4.67" shape="754.25,683.54 754.00,682.12 753.42,681.44 752.53,681.49 751.32,682.27"/>
    </edge>
    <edge id=":1087824504_0" function="internal">
        <lane id=":1087824504_0_0" index="0" disallow="tram rail_urban rail rail_electric rail_fast ship" speed="7.06" length="8.51" shape="750.09,685.10 748.89,687.16 747.38,688.55 745.56,689.26 743.44,689.30"/>
    </edge>
    <edge id=":1087824504_1" function="internal">
        <lane id=":1087824504_1_0" index="0" disallow="tram rail_urban rail rail_electric rail_fast ship" speed="8.11" length="13.01" shape="750.09,685.10 749.14,688.49 749.40,691.49 750.87,694.10 753.55,696.32"/>
    </edge>
    <edge id=":1087824504_2" function="internal">
        <lane id=":1087824504_2_0" index="0" disallow="tram rail_urban rail rail_electric rail_fast ship" speed="3.65" length="1.44" shape="750.09,685.10 750.34,686.52"/>
    </edge>
    <edge id=":1087824504_9" function="internal">
        <lane id=":1087824504_9_0" index="0" disallow="tram rail_urban rail rail_electric rail_fast ship" speed="3.65" length="3.23" shape="750.34,686.52 750.92,687.20 751.81,687.16 753.02,686.37"/>
    </edge>
    <edge id=":1087824504_3" function="internal">
        <lane id=":1087824504_3_0" index="0" disallow="tram rail_urban rail rail_electric rail_fast ship" speed="6.51" length="8.28" shape="755.33,693.44 753.57,692.07 752.60,690.44 752.42,688.54 753.02,686.37"/>
    </edge>
    <edge id=":1087824504_4" function="internal">
        <lane id=":1087824504_4_0" index="0" disallow="tram rail_urban rail rail_electric rail_fast ship" speed="22.22" length="12.69" shape="755.33,693.44 752.34,691.83 749.61,690.68 746.78,689.87 743.44,689.30"/>
    </edge>
    <edge id=":1087824504_5" function="internal">
        <lane id=":1087824504_5_0" index="0" disallow="tram rail_urban rail rail_electric rail_fast ship" speed="3.74" length="4.95" shape="755.33,693.44 753.80,693.49 753.00,693.99 752.91,694.93 753.55,696.32"/>
    </edge>
    <edge id=":1087824504_6" function="internal">
        <lane id=":1087824504_6_0" index="0" disallow="tram rail_urban rail rail_electric rail_fast ship" speed="19.84" length="11.34" shape="743.02,692.47 746.16,692.98 748.55,693.66 750.81,694.70 753.55,696.32"/>
    </edge>
    <edge id=":1087824504_7" function="internal">
        <lane id=":1087824504_7_0" index="0" disallow="tram rail_urban rail rail_electric rail_fast ship" speed="8.49" length="12.68" shape="743.02,692.47 746.25,692.43 749.00,691.40 751.25,689.38 753.02,686.37"/>
    </edge>
    <edge id=":1087824504_8" function="internal">
        <lane id=":1087824504_8_0" index="0" disallow="tram rail_urban rail rail_electric rail_fast ship" speed="3.65" length="4.67" shape="743.02,692.47 744.31,691.83 744.81,691.09 744.52,690.25 743.44,689.30"/>
    </edge>
    <edge id=":10978687880_0" function="internal">
        <lane id=":10978687880_0_0" index="0" disallow="tram rail_urban rail rail_electric rail_fast ship" speed="7.36" length="5.22" shape="1340.12,1002.59 1339.27,1002.99 1338.13,1003.16 1336.72,1003.11 1335.03,1002.82"/>
    </edge>
    <edge id=":10978687880_1" function="internal">
        <lane id=":10978687880_1_0" index="0" disallow="tram rail_urban rail rail_electric rail_fast ship" speed="19.62" length="5.19" shape="1340.12,1002.59 1338.85,1003.67 1338.17,1004.61 1337.62,1005.68 1336.74,1007.14"/>
        <lane id=":10978687880_1_1" index="1" disallow="tram rail_urban rail rail_electric rail_fast ship" speed="17.68" length="5.19" shape="1341.99,1005.19 1340.98,1006.08 1340.47,1006.87 1340.07,1007.76 1339.37,1008.96"/>
    </edge>
    <edge id=":10978687886_0" function="internal">
        <lane id=":10978687886_0_0" index="0" disallow="tram rail_urban rail rail_electric rail_fast ship" speed="7.59" length="7.95" shape="1355.88,995.77 1353.49,995.42 1351.57,994.72 1350.14,993.67 1349.18,992.25"/>
        <lane id=":10978687886_0_1" index="1" disallow="tram rail_urban rail rail_electric rail_fast ship" speed="8.46" length="10.05" shape="1355.88,995.77 1351.95,995.42 1349.04,994.94 1347.14,994.32 1346.26,993.57"/>
        <lane id=":10978687886_0_2" index="2" disallow="tram rail_urban rail rail_electric rail_fast ship" speed="9.42" length="12.61" shape="1355.88,995.77 1353.56,995.73 1349.39,995.64 1345.34,995.40 1343.35,994.89"/>
        <lane id=":10978687886_0_3" index="3" disallow="tram rail_urban rail rail_electric rail_fast ship" speed="10.45" length="15.67" shape="1355.88,995.77 1348.88,995.42 1343.97,995.38 1341.15,995.64 1340.43,996.20"/>
    </edge>
    <edge id=":10978687886_4" function="internal">
        <lane id=":10978687886_4_0" index="0" disallow="tram rail_urban rail rail_electric rail_fast ship" speed="15.27" length="17.01" shape="1355.88,995.77 1350.84,995.90 1347.49,997.06 1344.44,999.26 1340.29,1002.47"/>
        <lane id=":10978687886_4_1" index="1" disallow="tram rail_urban rail rail_electric rail_fast ship" speed="14.76" length="17.01" shape="1356.79,999.03 1352.07,999.12 1348.92,1000.13 1346.04,1002.11 1342.15,1005.07"/>
    </edge>
    <edge id=":10978687896_0" function="internal">
        <lane id=":10978687896_0_0" index="0" disallow="tram rail_urban rail rail_electric rail_fast ship" speed="22.22" length="0.47" shape="1401.84,995.66 1401.78,995.75 1401.68,995.74 1401.56,995.72 1401.42,995.76"/>
    </edge>
    <edge id=":10978687896_1" function="internal">
        <lane id=":10978687896_1_0" index="0" disallow="tram rail_urban rail rail_electric rail_fast ship" speed="3.92" length="3.29" shape="1401.84,995.66 1401.70,996.60 1401.91,997.26 1402.50,997.64 1403.44,997.73"/>
    </edge>
    <edge id=":10978687896_2" function="internal">
        <lane id=":10978687896_2_0" index="0" disallow="tram rail_urban rail rail_electric rail_fast ship" speed="22.22" length="0.76" shape="1403.17,998.44 1403.44,997.73"/>
    </edge>
    <edge id=":10978687896_3" function="internal">
        <lane id=":10978687896_3_0" index="0" disallow="tram rail_urban rail rail_electric rail_fast ship" speed="3.65" length="1.12" shape="1403.17,998.44 1403.61,997.41"/>
    </edge>
    <edge id=":10978687896_4" function="internal">
        <lane id=":10978687896_4_0" index="0" disallow="tram rail_urban rail rail_electric rail_fast ship" speed="3.65" length="3.55" shape="1403.61,997.41 1403.74,997.12 1403.64,996.23 1402.87,995.78 1401.42,995.76"/>
    </edge>
    <edge id=":10978687898_0" function="internal">
        <lane id=":10978687898_0_0" index="0" disallow="tram rail_urban rail rail_electric rail_fast ship" speed="22.64" length="7.32" shape="1333.93,1013.39 1333.31,1015.64 1332.96,1017.22 1332.85,1018.81 1332.99,1021.13"/>
        <lane id=":10978687898_0_1" index="1" disallow="tram rail_urban rail rail_electric rail_fast ship" speed="20.99" length="7.32" shape="1337.02,1014.20 1336.49,1016.13 1336.17,1017.48 1336.06,1018.85 1336.18,1020.84"/>
    </edge>
    <edge id=":10978687898_2" function="internal">
        <lane id=":10978687898_2_0" index="0" disallow="tram rail_urban rail rail_electric rail_fast ship" speed="7.40" length="7.08" shape="1329.06,1015.65 1330.65,1016.63 1331.84,1017.88 1332.62,1019.38 1332.99,1021.13"/>
    </edge>
    <edge id=":10978687899_0" function="internal">
        <lane id=":10978687899_0_0" index="0" disallow="tram rail_urban rail rail_electric rail_fast ship" speed="6.38" length="9.03" shape="1384.28,1006.85 1382.01,1007.89 1379.99,1007.93 1378.22,1006.96 1376.69,1004.99"/>
    </edge>
    <edge id=":10978687899_1" function="internal">
        <lane id=":10978687899_1_0" index="0" disallow="tram rail_urban rail rail_electric rail_fast ship" speed="8.02" length="10.10" shape="1381.67,1017.96 1381.58,1015.56 1382.28,1013.36 1383.75,1011.35 1386.01,1009.54"/>
    </edge>
    <edge id=":10978687899_2" function="internal">
        <lane id=":10978687899_2_0" index="0" disallow="tram rail_urban rail rail_electric rail_fast ship" speed="27.78" length="13.63" shape="1381.67,1017.96 1380.82,1013.90 1379.97,1011.18 1378.73,1008.61 1376.69,1004.99"/>
        <lane id=":10978687899_2_1" index="1" disallow="tram rail_urban rail rail_electric rail_fast ship" speed="14.02" length="13.63" shape="1378.53,1018.57 1377.95,1014.65 1377.50,1011.85 1376.39,1009.42 1373.82,1006.62"/>
    </edge>
    <edge id=":10978687900_0" function="internal">
        <lane id=":10978687900_0_0" index="0" disallow="tram rail_urban rail rail_electric rail_fast ship" speed="9.22" length="8.08" shape="1345.56,1047.13 1347.82,1045.54 1349.78,1044.47 1351.43,1043.90 1352.77,1043.84"/>
        <lane id=":10978687900_0_1" index="1" disallow="tram rail_urban rail rail_electric rail_fast ship" speed="10.52" length="10.67" shape="1343.62,1044.58 1346.45,1042.65 1349.00,1041.35 1351.28,1040.70 1353.29,1040.68"/>
    </edge>
    <edge id=":10978687900_2" function="internal">
        <lane id=":10978687900_2_0" index="0" disallow="tram rail_urban rail rail_electric rail_fast ship" speed="27.78" length="9.83" shape="1343.24,1040.05 1345.93,1041.53 1347.81,1042.52 1349.79,1043.23 1352.77,1043.84"/>
        <lane id=":10978687900_2_1" index="1" disallow="tram rail_urban rail rail_electric rail_fast ship" speed="27.78" length="9.83" shape="1344.72,1037.21 1347.15,1038.55 1348.83,1039.47 1350.60,1040.13 1353.29,1040.68"/>
    </edge>
    <edge id=":10978687901_0" function="internal">
        <lane id=":10978687901_0_0" index="0" disallow="tram rail_urban rail rail_electric rail_fast ship" speed="8.97" length="9.47" shape="1366.72,1042.45 1368.24,1042.08 1370.25,1042.29 1372.74,1043.07 1375.73,1044.43"/>
        <lane id=":10978687901_0_1" index="1" disallow="tram rail_urban rail rail_electric rail_fast ship" speed="9.59" length="10.89" shape="1366.72,1042.45 1369.65,1041.23 1372.36,1040.67 1374.87,1040.79 1377.18,1041.58"/>
        <lane id=":10978687901_0_2" index="2" disallow="tram rail_urban rail rail_electric rail_fast ship" speed="10.32" length="12.70" shape="1366.72,1042.45 1371.05,1040.37 1374.48,1039.06 1377.01,1038.51 1378.63,1038.73"/>
    </edge>
    <edge id=":10978687901_3" function="internal">
        <lane id=":10978687901_3_0" index="0" disallow="tram rail_urban rail rail_electric rail_fast ship" speed="14.64" length="13.94" shape="1366.72,1042.45 1370.64,1040.62 1373.39,1039.23 1375.56,1037.27 1377.69,1033.70"/>
        <lane id=":10978687901_3_1" index="1" disallow="tram rail_urban rail rail_electric rail_fast ship" speed="14.08" length="13.94" shape="1365.26,1039.61 1368.86,1037.89 1371.36,1036.56 1373.32,1034.69 1375.27,1031.36"/>
    </edge>
    <edge id=":10978687902_0" function="internal">
        <lane id=":10978687902_0_0" index="0" disallow="tram rail_urban rail rail_electric rail_fast ship" speed="7.50" length="8.57" shape="1386.51,1026.17 1384.32,1024.63 1382.82,1023.00 1382.02,1021.29 1381.92,1019.50"/>
        <lane id=":10978687902_0_1" index="1" disallow="tram rail_urban rail rail_electric rail_fast ship" speed="10.84" length="12.02" shape="1384.88,1028.93 1382.65,1027.23 1380.87,1025.02 1379.53,1022.30 1378.63,1019.08"/>
    </edge>
    <edge id=":10978687902_2" function="internal">
        <lane id=":10978687902_2_0" index="0" disallow="tram rail_urban rail rail_electric rail_fast ship" speed="27.78" length="12.22" shape="1378.96,1031.11 1380.41,1027.86 1381.12,1025.51 1381.49,1023.06 1381.92,1019.50"/>
        <lane id=":10978687902_2_1" index="1" disallow="tram rail_urban rail rail_electric rail_fast ship" speed="13.47" length="12.22" shape="1375.62,1030.65 1377.36,1027.40 1378.54,1025.05 1379.01,1022.60 1378.63,1019.08"/>
    </edge>
    <edge id=":1148155464-AddedOnRampNode_0" function="internal">
        <lane id=":1148155464-AddedOnRampNode_0_0" index="0" disallow="tram rail_urban rail rail_electric rail_fast ship" speed="22.22" length="8.00" shape="2215.17,572.65 2222.64,569.79"/>
    </edge>
    <edge id=":1148406432#1-AddedOffRampNode_0" function="internal">
        <lane id=":1148406432#1-AddedOffRampNode_0_0" index="0" disallow="tram rail_urban rail rail_electric rail_fast ship" speed="27.78" length="8.40" shape="1150.10,1428.14 1149.26,1425.77 1149.41,1423.89 1149.56,1422.00 1148.72,1419.64"/>
        <lane id=":1148406432#1-AddedOffRampNode_0_1" index="1" disallow="tram rail_urban rail rail_electric rail_fast ship" speed="27.78" length="8.40" shape="1150.10,1428.14 1145.98,1421.28"/>
    </edge>
    <edge id=":1232686162_0" function="internal">
        <lane id=":1232686162_0_0" index="0" disallow="tram rail_urban rail rail_electric rail_fast ship" speed="6.03" length="6.70" shape="2648.82,1118.99 2649.64,1119.93 2649.92,1121.28 2649.64,1123.03 2648.81,1125.18"/>
        <lane id=":1232686162_0_1" index="1" disallow="tram rail_urban rail rail_electric rail_fast ship" speed="7.69" length="11.46" shape="2650.61,1116.34 2652.35,1118.12 2653.09,1120.45 2652.85,1123.33 2651.61,1126.75"/>
        <lane id=":1232686162_0_2" index="2" disallow="tram rail_urban rail rail_electric rail_fast ship" speed="8.41" length="13.89" shape="2650.61,1116.34 2653.53,1118.90 2655.13,1121.76 2655.42,1124.90 2654.41,1128.33"/>
    </edge>
    <edge id=":1285102586_0" function="internal">
        <lane id=":1285102586_0_0" index="0" disallow="tram rail_urban rail rail_electric rail_fast ship" speed="27.78" length="3.96" shape="743.79,678.88 740.34,677.22"/>
        <lane id=":1285102586_0_1" index="1" disallow="tram rail_urban rail rail_electric rail_fast ship" speed="27.78" length="3.96" shape="745.55,681.55 741.73,680.10"/>
    </edge>
    <edge id=":1285102586_2" function="internal">
        <lane id=":1285102586_2_0" index="0" disallow="tram rail_urban rail rail_electric rail_fast ship" speed="3.74" length="4.83" shape="743.17,683.08 743.92,681.80 743.94,680.87 743.20,680.31 741.73,680.10"/>
    </edge>
    <edge id=":1482644048_0" function="internal">
        <lane id=":1482644048_0_0" index="0" disallow="tram rail_urban rail rail_electric rail_fast ship" speed="6.26" length="4.01" shape="1333.13,1022.67 1333.17,1023.91 1333.03,1024.95 1332.72,1025.80 1332.23,1026.45"/>
        <lane id=":1482644048_0_1" index="1" disallow="tram rail_urban rail rail_electric rail_fast ship" speed="7.64" length="6.23" shape="1333.13,1022.67 1334.45,1028.76"/>
    </edge>
    <edge id=":1482644048_2" function="internal">
        <lane id=":1482644048_2_0" index="0" disallow="tram rail_urban rail rail_electric rail_fast ship" speed="26.44" length="9.82" shape="1333.13,1022.67 1333.52,1025.70 1334.07,1027.73 1334.95,1029.68 1336.29,1032.45"/>
        <lane id=":1482644048_2_1" index="1" disallow="tram rail_urban rail rail_electric rail_fast ship" speed="25.00" length="9.82" shape="1336.32,1022.38 1336.67,1025.09 1337.19,1026.90 1337.98,1028.63 1339.19,1031.11"/>
    </edge>
    <edge id=":150785556#0-AddedOffRampNode_0" function="internal">
        <lane id=":150785556#0-AddedOffRampNode_0_0" index="0" disallow="tram rail_urban rail rail_electric rail_fast ship" speed="27.78" length="8.27" shape="942.11,1324.09 944.47,1323.23 946.37,1323.37 948.26,1323.50 950.59,1322.59"/>
        <lane id=":150785556#0-AddedOffRampNode_0_1" index="1" disallow="tram rail_urban rail rail_electric rail_fast ship" speed="27.78" length="8.27" shape="942.11,1324.09 948.91,1319.87"/>
        <lane id=":150785556#0-AddedOffRampNode_0_2" index="2" disallow="tram rail_urban rail rail_electric rail_fast ship" speed="27.78" length="8.27" shape="940.43,1321.37 947.22,1317.15"/>
    </edge>
    <edge id=":1608982292_0" function="internal">
        <lane id=":1608982292_0_0" index="0" disallow="tram rail_urban rail rail_electric rail_fast ship" speed="25.00" length="11.34" shape="1087.07,1205.61 1084.50,1207.65 1082.58,1208.84 1080.58,1209.91 1077.75,1211.60"/>
        <lane id=":1608982292_0_1" index="1" disallow="tram rail_urban rail rail_electric rail_fast ship" speed="25.00" length="11.34" shape="1089.16,1208.03 1086.49,1210.16 1084.50,1211.41 1082.42,1212.53 1079.47,1214.30"/>
    </edge>
    <edge id=":1636623242_0" function="internal">
        <lane id=":1636623242_0_0" index="0" disallow="tram rail_urban rail rail_electric rail_fast ship" speed="11.55" length="3.65" shape="2125.99,611.18 2126.70,610.37 2127.24,609.86 2127.87,609.46 2128.84,608.98"/>
    </edge>
    <edge id=":1636623242_1" function="internal">
        <lane id=":1636623242_1_0" index="0" disallow="tram rail_urban rail rail_electric rail_fast ship" speed="22.22" length="3.52" shape="2124.17,607.39 2125.17,607.08 2125.84,606.84 2126.50,606.55 2127.44,606.10"/>
    </edge>
    <edge id=":1636623325_0" function="internal">
        <lane id=":1636623325_0_0" index="0" disallow="tram rail_urban rail rail_electric rail_fast ship" speed="27.78" length="2.13" shape="1004.34,1156.91 1004.05,1156.35 1003.85,1155.97 1003.63,1155.60 1003.29,1155.06"/>
    </edge>
    <edge id=":1636623325_1" function="internal">
        <lane id=":1636623325_1_0" index="0" disallow="tram rail_urban rail rail_electric rail_fast ship" speed="25.00" length="2.45" shape="1007.03,1155.51 1006.77,1154.83 1006.58,1154.37 1006.35,1153.93 1005.97,1153.32"/>
    </edge>
    <edge id=":1637604213_0" function="internal">
        <lane id=":1637604213_0_0" index="0" disallow="tram rail_urban rail rail_electric rail_fast ship" speed="6.94" length="8.22" shape="1683.71,925.55 1681.31,925.18 1679.72,924.56 1678.12,924.01 1675.73,923.87"/>
    </edge>
    <edge id=":1637604213_1" function="internal">
        <lane id=":1637604213_1_0" index="0" disallow="tram rail_urban rail rail_electric rail_fast ship" speed="5.02" length="7.19" shape="1683.71,925.55 1681.52,925.74 1680.37,926.53 1680.24,927.93 1681.14,929.93"/>
    </edge>
    <edge id=":1637604213_2" function="internal">
        <lane id=":1637604213_2_0" index="0" disallow="tram rail_urban rail rail_electric rail_fast ship" speed="6.83" length="6.27" shape="1675.91,927.06 1677.49,927.17 1678.89,927.68 1680.11,928.60 1681.14,929.93"/>
    </edge>
    <edge id=":1637604213_3" function="internal">
        <lane id=":1637604213_3_0" index="0" disallow="tram rail_urban rail rail_electric rail_fast ship" speed="3.65" length="4.67" shape="1675.91,927.06 1677.06,926.19 1677.42,925.37 1676.97,924.60 1675.73,923.87"/>
    </edge>
    <edge id=":1650305476_0" function="internal">
        <lane id=":1650305476_0_0" index="0" disallow="tram rail_urban rail rail_electric rail_fast ship" speed="27.78" length="4.01" shape="2420.07,1711.18 2419.89,1710.13 2419.90,1709.39 2419.99,1708.63 2420.02,1707.55"/>
        <lane id=":1650305476_0_1" index="1" disallow="tram rail_urban rail rail_electric rail_fast ship" speed="27.78" length="4.01" shape="2416.97,1711.96 2416.73,1710.70 2416.72,1709.82 2416.79,1708.92 2416.82,1707.63"/>
    </edge>
    <edge id=":1650305476_2" function="internal">
        <lane id=":1650305476_2_0" index="0" disallow="tram rail_urban rail rail_electric rail_fast ship" speed="22.67" length="6.41" shape="2413.87,1712.74 2413.46,1710.87 2413.18,1709.58 2412.72,1708.36 2411.77,1706.73"/>
    </edge>
    <edge id=":1650305517_0" function="internal">
        <lane id=":1650305517_0_0" index="0" disallow="tram rail_urban rail rail_electric rail_fast ship" speed="10.19" length="8.46" shape="2482.64,1548.54 2481.99,1546.16 2481.89,1544.42 2482.33,1542.71 2483.32,1540.43"/>
    </edge>
    <edge id=":1650305517_1" function="internal">
        <lane id=":1650305517_1_0" index="0" disallow="tram rail_urban rail rail_electric rail_fast ship" speed="27.78" length="9.70" shape="2476.65,1547.64 2480.41,1539.11"/>
        <lane id=":1650305517_1_1" index="1" disallow="tram rail_urban rail rail_electric rail_fast ship" speed="27.78" length="9.70" shape="2476.65,1547.64 2477.34,1544.83 2477.06,1542.70 2476.78,1540.59 2477.49,1537.78"/>
    </edge>
    <edge id=":1842803388_0" function="internal">
        <lane id=":1842803388_0_0" index="0" disallow="tram rail_urban rail rail_electric rail_fast ship" speed="6.94" length="15.75" shape="1712.07,921.96 1707.59,924.37 1704.01,926.08 1700.79,926.87 1697.43,926.50"/>
    </edge>
    <edge id=":1842803388_1" function="internal">
        <lane id=":1842803388_1_0" index="0" disallow="tram rail_urban rail rail_electric rail_fast ship" speed="6.94" length="16.92" shape="1712.07,921.96 1707.71,924.50 1705.02,926.70 1702.67,929.33 1699.30,933.16"/>
        <lane id=":1842803388_1_1" index="1" disallow="tram rail_urban rail rail_electric rail_fast ship" speed="6.94" length="16.92" shape="1714.14,924.49 1709.89,926.95 1707.26,929.07 1704.94,931.61 1701.66,935.33"/>
    </edge>
    <edge id=":1842803388_3" function="internal">
        <lane id=":1842803388_3_0" index="0" disallow="tram rail_urban rail rail_electric rail_fast ship" speed="6.20" length="10.53" shape="1702.35,919.74 1702.40,923.32 1701.60,925.65 1699.94,926.71 1697.43,926.50"/>
    </edge>
    <edge id=":1842803388_4" function="internal">
        <lane id=":1842803388_4_0" index="0" disallow="tram rail_urban rail rail_electric rail_fast ship" speed="6.94" length="14.17" shape="1702.35,919.74 1702.54,923.95 1702.10,927.60 1701.02,930.67 1699.30,933.16"/>
        <lane id=":1842803388_4_1" index="1" disallow="tram rail_urban rail rail_electric rail_fast ship" speed="6.94" length="17.11" shape="1705.50,919.17 1705.72,924.18 1705.15,928.54 1703.80,932.26 1701.66,935.33"/>
    </edge>
    <edge id=":2014690200_0" function="internal">